
     RDKit          2D

 56 59  0  0  0  0  0  0  0  0999 V2000
   -2.1470    1.7537    0.0000 C   0  0  0  0  0  0  0  0  0 23  0  0
   -3.5736    1.2902    0.0000 O   0  0  0  0  0  0  0  0  0  4  0  0
   -1.8351    3.2209    0.0000 C   0  0  0  0  0  0  0  0  0 13  0  0
   -1.0323    0.7500    0.0000 C   0  0  0  0  0  0  0  0  0 26  0  0
   -0.4086    3.6844    0.0000 C   0  0  0  0  0  0  0  0  0 12  0  0
   -2.9499    4.2246    0.0000 H   0  0  0  0  0  0  0  0  0  0  0  0
    0.3943    1.2135    0.0000 C   0  0  0  0  0  0  0  0  0 25  0  0
   -1.0323   -0.7500    0.0000 C   0  0  0  0  0  0  0  0  0 24  0  0
    0.7062    2.6807    0.0000 C   0  0  0  0  0  0  0  0  0 14  0  0
   -0.0967    5.1517    0.0000 H   0  0  0  0  0  0  0  0  0  0  0  0
    1.2760    0.0000    0.0000 N   0  0  0  0  0  0  0  0  0  5  0  0
   -2.1470   -1.7537    0.0000 C   0  0  0  0  0  0  0  0  0 15  0  0
    0.3943   -1.2135    0.0000 C   0  0  0  0  0  0  0  0  0 22  0  0
    2.1328    3.1443    0.0000 H   0  0  0  0  0  0  0  0  0  0  0  0
    2.7314    0.3630    0.0000 H   0  0  0  0  0  0  0  0  0  0  0  0
   -1.8351   -3.2209    0.0000 C   0  0  0  0  0  0  0  0  0 18  0  0
   -3.5378   -2.3156    0.0000 H   0  0  0  0  0  0  0  0  0  0  0  0
   -2.9419   -0.4816    0.0000 H   0  0  0  0  0  0  0  0  0  0  0  0
    0.7062   -2.6807    0.0000 C   0  0  0  0  0  0  0  0  0 29  0  0
   -0.4086   -3.6844    0.0000 N   0  0  0  0  0  0  0  0  0  6  0  0
   -2.2234   -4.6698    0.0000 H   0  0  0  0  0  0  0  0  0  0  0  0
   -3.3342   -3.2733    0.0000 H   0  0  0  0  0  0  0  0  0  0  0  0
    2.1328   -3.1443    0.0000 C   0  0  0  0  0  0  0  0  0 17  0  0
    1.2291   -2.0791    0.0000 H   0  0  0  0  0  0  0  0  0  0  0  0
   -0.0967   -5.1517    0.0000 C   0  0  0  0  0  0  0  0  0 19  0  0
    2.4446   -4.6115    0.0000 C   0  0  0  0  0  0  0  0  0 28  0  0
    3.5746   -2.7307    0.0000 H   0  0  0  0  0  0  0  0  0  0  0  0
    2.1466   -2.3472    0.0000 H   0  0  0  0  0  0  0  0  0  0  0  0
    1.3299   -5.6152    0.0000 C   0  0  0  0  0  0  0  0  0 27  0  0
   -1.5782   -5.3864    0.0000 H   0  0  0  0  0  0  0  0  0  0  0  0
   -0.3054   -6.6371    0.0000 H   0  0  0  0  0  0  0  0  0  0  0  0
    3.8354   -4.0496    0.0000 C   0  0  0  0  0  0  0  0  0 21  0  0
    3.3886   -5.7772    0.0000 H   0  0  0  0  0  0  0  0  0  0  0  0
    2.5119   -6.5387    0.0000 C   0  0  0  0  0  0  0  0  0 16  0  0
    0.6257   -6.9396    0.0000 H   0  0  0  0  0  0  0  0  0  0  0  0
    4.0442   -2.5642    0.0000 C   0  0  0  0  0  0  0  0  0 20  0  0
    5.0174   -4.9731    0.0000 C   0  0  0  0  0  0  0  0  0 11  0  0
    3.6939   -7.4622    0.0000 C   0  0  0  0  0  0  0  0  0  7  0  0
    1.5884   -7.7207    0.0000 H   0  0  0  0  0  0  0  0  0  0  0  0
    3.5726   -5.4781    0.0000 H   0  0  0  0  0  0  0  0  0  0  0  0
    5.4349   -2.0023    0.0000 O   0  0  0  0  0  0  0  0  0  1  0  0
    2.8621   -1.6407    0.0000 O   0  0  0  0  0  0  0  0  0  3  0  0
    4.8087   -6.4585    0.0000 O   0  0  0  0  0  0  0  0  0  2  0  0
    6.4082   -4.4112    0.0000 H   0  0  0  0  0  0  0  0  0  0  0  0
    2.7704   -8.6442    0.0000 H   0  0  0  0  0  0  0  0  0  0  0  0
    4.8760   -6.5387    0.0000 H   0  0  0  0  0  0  0  0  0  0  0  0
    4.7546   -8.5229    0.0000 H   0  0  0  0  0  0  0  0  0  0  0  0
    3.0709   -0.1553    0.0000 C   0  0  0  0  0  0  0  0  0  9  0  0
    5.9907   -7.3820    0.0000 C   0  0  0  0  0  0  0  0  0  8  0  0
    1.6802    0.4067    0.0000 H   0  0  0  0  0  0  0  0  0  0  0  0
    4.5563   -0.3640    0.0000 H   0  0  0  0  0  0  0  0  0  0  0  0
    3.2797    1.3301    0.0000 H   0  0  0  0  0  0  0  0  0  0  0  0
    5.2181   -8.6677    0.0000 H   0  0  0  0  0  0  0  0  0  0  0  0
    6.9142   -6.2000    0.0000 H   0  0  0  0  0  0  0  0  0  0  0  0
    7.1727   -8.3055    0.0000 H   0  0  0  0  0  0  0  0  0  0  0  0
   -4.6883    2.2939    0.0000 H   0  0  0  0  0  0  0  0  0  0  0  0
  1  2  1  0
  3  1  2  0
  1  4  1  0
  5  3  1  0
  3  6  1  0
  4  7  2  0
  4  8  1  0
  9  5  2  0
  5 10  1  0
 11  7  1  0
  7  9  1  0
 12  8  1  0
  8 13  2  0
  9 14  1  0
 13 11  1  0
 11 15  1  0
 16 12  1  0
 12 17  1  0
 12 18  1  0
 13 19  1  0
 20 16  1  0
 16 21  1  0
 16 22  1  0
 23 19  1  0
 19 20  1  0
 19 24  1  1
 20 25  1  0
 26 23  1  0
 23 27  1  0
 23 28  1  0
 25 29  1  0
 25 30  1  0
 25 31  1  0
 32 26  1  0
 29 26  1  0
 26 33  1  1
 29 34  1  0
 29 35  1  1
 36 32  1  0
 32 37  2  0
 34 38  1  0
 34 39  1  0
 34 40  1  0
 41 36  2  0
 36 42  1  0
 37 43  1  0
 37 44  1  0
 38 45  1  0
 38 46  1  0
 38 47  1  0
 42 48  1  0
 43 49  1  0
 48 50  1  0
 48 51  1  0
 48 52  1  0
 49 53  1  0
 49 54  1  0
 49 55  1  0
  2 56  1  0
M  END
>  <SMILES>  (1) 
CCC1CN2CCc3c([nH]c4cccc(O)c34)C2CC1C(=COC)C(=O)OC

>  <Molecular Weight>  (1) 
384.5

>  <Substrate_ID>  (1) 
MOL0063

>  <Substrate>  (1) 


>  <Substrate_SMILES>  (1) 
CCC1CN2CCc3c([nH]c4cccc(OC)c34)C2CC1C(=COC)C(=O)OC

>  <Reaction>  (1) 
O-demethylation

>  <Score>  (1) 
0.4156

>  <Reaction_Score>  (1) 
0.4875

>  <Bond_Score>  (1) 
0.3543

>  <Rank>  (1) 
1

>  <Subtype>  (1) 
2C8, 2C9, 2C19, 2D6, 3A4

>  <Subtype_Scores>  (1) 
[2C8] SOM_score: 0.1675, Reaction_score: 0.4875, Score: 0.2857
[2C9] SOM_score: 0.1948, Reaction_score: 0.4875, Score: 0.3082
[2C19] SOM_score: 0.1786, Reaction_score: 0.4875, Score: 0.2951
[2D6] SOM_score: 0.3059, Reaction_score: 0.4875, Score: 0.3862
[3A4] SOM_score: 0.3543, Reaction_score: 0.4875, Score: 0.4156


$$$$

     RDKit          2D

 60 63  0  0  0  0  0  0  0  0999 V2000
    0.7062    2.6807    0.0000 C   0  0  0  0  0  0  0  0  0 29  0  0
   -0.4086    3.6844    0.0000 N   0  0  0  0  0  4  0  0  0  6  0  0
   -1.8351    3.2209    0.0000 C   0  0  0  0  0  0  0  0  0 18  0  0
   -0.0967    5.1517    0.0000 C   0  0  0  0  0  0  0  0  0 19  0  0
   -1.5233    4.6881    0.0000 O   0  0  0  0  0  1  0  0  0 30  0  0
    2.1328    3.1443    0.0000 C   0  0  0  0  0  0  0  0  0 17  0  0
    0.3943    1.2135    0.0000 C   0  0  0  0  0  0  0  0  0 22  0  0
    1.5033    1.7638    0.0000 H   0  0  0  0  0  0  0  0  0  0  0  0
    2.4446    4.6115    0.0000 C   0  0  0  0  0  0  0  0  0 28  0  0
    2.4472    1.9707    0.0000 H   0  0  0  0  0  0  0  0  0  0  0  0
    3.6318    3.0919    0.0000 H   0  0  0  0  0  0  0  0  0  0  0  0
   -1.0323    0.7500    0.0000 C   0  0  0  0  0  0  0  0  0 24  0  0
    1.2760    0.0000    0.0000 N   0  0  0  0  0  0  0  0  0  5  0  0
    3.2395    5.8836    0.0000 C   0  0  0  0  0  0  0  0  0 21  0  0
    1.3299    5.6152    0.0000 C   0  0  0  0  0  0  0  0  0 27  0  0
    3.8354    4.0496    0.0000 H   0  0  0  0  0  0  0  0  0  0  0  0
   -2.1470    1.7537    0.0000 C   0  0  0  0  0  0  0  0  0 15  0  0
   -1.0323   -0.7500    0.0000 C   0  0  0  0  0  0  0  0  0 26  0  0
    0.3943   -1.2135    0.0000 C   0  0  0  0  0  0  0  0  0 25  0  0
    2.7760    0.0000    0.0000 H   0  0  0  0  0  0  0  0  0  0  0  0
    2.5353    7.2080    0.0000 C   0  0  0  0  0  0  0  0  0 20  0  0
    4.7386    5.8312    0.0000 C   0  0  0  0  0  0  0  0  0 11  0  0
    0.6257    6.9396    0.0000 C   0  0  0  0  0  0  0  0  0 16  0  0
    2.0031    6.4769    0.0000 H   0  0  0  0  0  0  0  0  0  0  0  0
   -2.9419    0.4816    0.0000 H   0  0  0  0  0  0  0  0  0  0  0  0
   -3.5378    2.3156    0.0000 H   0  0  0  0  0  0  0  0  0  0  0  0
   -2.1470   -1.7537    0.0000 C   0  0  0  0  0  0  0  0  0 23  0  0
    0.7062   -2.6807    0.0000 C   0  0  0  0  0  0  0  0  0 14  0  0
    3.3302    8.4801    0.0000 O   0  0  0  0  0  0  0  0  0  1  0  0
    1.0362    7.2603    0.0000 O   0  0  0  0  0  0  0  0  0  3  0  0
    5.4428    4.5068    0.0000 O   0  0  0  0  0  0  0  0  0  2  0  0
    5.5335    7.1033    0.0000 H   0  0  0  0  0  0  0  0  0  0  0  0
   -0.0785    8.2640    0.0000 C   0  0  0  0  0  0  0  0  0  7  0  0
    1.7404    7.9434    0.0000 H   0  0  0  0  0  0  0  0  0  0  0  0
   -0.7747    6.4021    0.0000 H   0  0  0  0  0  0  0  0  0  0  0  0
   -1.8351   -3.2209    0.0000 C   0  0  0  0  0  0  0  0  0 13  0  0
   -3.5736   -1.2902    0.0000 O   0  0  0  0  0  0  0  0  0  4  0  0
   -0.4086   -3.6844    0.0000 C   0  0  0  0  0  0  0  0  0 12  0  0
    2.1328   -3.1443    0.0000 H   0  0  0  0  0  0  0  0  0  0  0  0
    0.3320    8.5848    0.0000 C   0  0  0  0  0  0  0  0  0  9  0  0
    6.9419    4.4544    0.0000 C   0  0  0  0  0  0  0  0  0  8  0  0
    1.3219    8.8015    0.0000 H   0  0  0  0  0  0  0  0  0  0  0  0
   -1.3072    7.4036    0.0000 H   0  0  0  0  0  0  0  0  0  0  0  0
   -0.9389    9.4927    0.0000 H   0  0  0  0  0  0  0  0  0  0  0  0
   -2.9499   -4.2246    0.0000 H   0  0  0  0  0  0  0  0  0  0  0  0
   -4.6883   -2.2939    0.0000 C   0  0  0  0  0  0  0  0  0 10  0  0
   -0.0967   -5.1517    0.0000 H   0  0  0  0  0  0  0  0  0  0  0  0
   -1.0684    8.0472    0.0000 H   0  0  0  0  0  0  0  0  0  0  0  0
    1.5607    9.4452    0.0000 H   0  0  0  0  0  0  0  0  0  0  0  0
   -0.2055    9.9851    0.0000 H   0  0  0  0  0  0  0  0  0  0  0  0
    6.8895    2.9554    0.0000 H   0  0  0  0  0  0  0  0  0  0  0  0
    6.9942    5.9535    0.0000 H   0  0  0  0  0  0  0  0  0  0  0  0
    8.4410    4.4021    0.0000 H   0  0  0  0  0  0  0  0  0  0  0  0
   -5.6920   -1.1791    0.0000 H   0  0  0  0  0  0  0  0  0  0  0  0
   -3.6846   -3.4086    0.0000 H   0  0  0  0  0  0  0  0  0  0  0  0
   -5.8030   -3.2976    0.0000 H   0  0  0  0  0  0  0  0  0  0  0  0
   -3.3342    3.2733    0.0000 H   0  0  0  0  0  0  0  0  0  0  0  0
   -2.3971    4.6117    0.0000 H   0  0  0  0  0  0  0  0  0  0  0  0
   -0.4850    6.6005    0.0000 H   0  0  0  0  0  0  0  0  0  0  0  0
   -1.5386    5.5652    0.0000 H   0  0  0  0  0  0  0  0  0  0  0  0
  1  2  1  0
  2  3  1  0
  2  4  1  0
  2  5  1  0
  6  1  1  0
  7  1  1  0
  1  8  1  6
  9  6  1  0
  6 10  1  0
  6 11  1  0
 12  7  2  0
  7 13  1  0
 14  9  1  0
 15  9  1  0
  9 16  1  6
 17 12  1  0
 18 12  1  0
 13 19  1  0
 13 20  1  0
 21 14  1  0
 14 22  2  0
  4 15  1  0
 15 23  1  0
 15 24  1  6
  3 17  1  0
 17 25  1  0
 17 26  1  0
 27 18  2  0
 18 19  1  0
 19 28  2  0
 29 21  2  0
 21 30  1  0
 22 31  1  0
 22 32  1  0
 23 33  1  0
 23 34  1  0
 23 35  1  0
 36 27  1  0
 27 37  1  0
 28 38  1  0
 28 39  1  0
 30 40  1  0
 31 41  1  0
 33 42  1  0
 33 43  1  0
 33 44  1  0
 38 36  2  0
 36 45  1  0
 37 46  1  0
 38 47  1  0
 40 48  1  0
 40 49  1  0
 40 50  1  0
 41 51  1  0
 41 52  1  0
 41 53  1  0
 46 54  1  0
 46 55  1  0
 46 56  1  0
  3 57  1  0
  3 58  1  0
  4 59  1  0
  4 60  1  0
M  CHG  2   2   1   5  -1
M  END
>  <SMILES>  (2) 
CCC1C[N+]2([O-])CCc3c([nH]c4cccc(OC)c34)C2CC1C(=COC)C(=O)OC

>  <Molecular Weight>  (2) 
414.5

>  <Substrate_ID>  (2) 
MOL0063

>  <Substrate>  (2) 


>  <Substrate_SMILES>  (2) 
CCC1CN2CCc3c([nH]c4cccc(OC)c34)C2CC1C(=COC)C(=O)OC

>  <Reaction>  (2) 
N-oxidation_(tertiary_N),N-oxidation

>  <Score>  (2) 
0.0389

>  <Reaction_Score>  (2) 
0.0091

>  <Bond_Score>  (2) 
0.1668

>  <Rank>  (2) 
2

>  <Subtype>  (2) 
3A4

>  <Subtype_Scores>  (2) 
[3A4] SOM_score: 0.1668, Reaction_score: 0.0091, Score: 0.0389


$$$$
