
     RDKit          2D

 46 47  0  0  0  0  0  0  0  0999 V2000
    1.5000    0.0000    0.0000 C   0  0  0  0  0  0  0  0  0 23  0  0
    3.0000    0.0000    0.0000 O   0  0  0  0  0  0  0  0  0  2  0  0
    0.7500    1.2990    0.0000 C   0  0  0  0  0  0  0  0  0 20  0  0
    0.7500   -1.2990    0.0000 C   0  0  0  0  0  0  0  0  0 21  0  0
   -0.7500    1.2990    0.0000 C   0  0  0  0  0  0  0  0  0 15  0  0
    1.5000    2.5981    0.0000 H   0  0  0  0  0  0  0  0  0  0  0  0
   -0.7500   -1.2990    0.0000 C   0  0  0  0  0  0  0  0  0 16  0  0
    1.5000   -2.5981    0.0000 H   0  0  0  0  0  0  0  0  0  0  0  0
   -1.5000    0.0000    0.0000 C   0  0  0  0  0  0  0  0  0 12  0  0
   -1.5000    2.5981    0.0000 H   0  0  0  0  0  0  0  0  0  0  0  0
   -1.5000   -2.5981    0.0000 H   0  0  0  0  0  0  0  0  0  0  0  0
   -3.0000    0.0000    0.0000 C   0  0  0  0  0  0  0  0  0  8  0  0
   -4.5000    0.0000    0.0000 C   0  0  0  0  0  0  0  0  0  7  0  0
   -2.8172   -1.4888    0.0000 H   0  0  0  0  0  0  0  0  0  0  0  0
   -3.0000    1.5000    0.0000 H   0  0  0  0  0  0  0  0  0  0  0  0
   -4.5000   -1.5000    0.0000 N   0  0  0  0  0  0  0  0  0  5  0  0
   -6.0000    0.0000    0.0000 C   0  0  0  0  0  0  0  0  0 11  0  0
   -4.5000    1.5000    0.0000 H   0  0  0  0  0  0  0  0  0  0  0  0
   -5.7990   -2.2500    0.0000 C   0  0  0  0  0  0  0  0  0  9  0  0
   -3.3021   -2.4028    0.0000 H   0  0  0  0  0  0  0  0  0  0  0  0
   -7.5000    0.0000    0.0000 H   0  0  0  0  0  0  0  0  0  0  0  0
   -6.0000    1.5000    0.0000 H   0  0  0  0  0  0  0  0  0  0  0  0
   -6.2857   -0.7442    0.0000 H   0  0  0  0  0  0  0  0  0  0  0  0
   -7.0981   -3.0000    0.0000 C   0  0  0  0  0  0  0  0  0 10  0  0
   -6.2788   -1.6134    0.0000 H   0  0  0  0  0  0  0  0  0  0  0  0
   -5.0490   -3.5490    0.0000 H   0  0  0  0  0  0  0  0  0  0  0  0
   -7.8481   -1.7010    0.0000 O   0  0  0  0  0  0  0  0  0  1  0  0
   -8.3971   -3.7500    0.0000 C   0  0  0  0  0  0  0  0  0 13  0  0
   -6.3481   -4.2990    0.0000 H   0  0  0  0  0  0  0  0  0  0  0  0
   -9.3369   -1.5181    0.0000 H   0  0  0  0  0  0  0  0  0  0  0  0
   -9.6962   -3.0000    0.0000 C   0  0  0  0  0  0  0  0  0 14  0  0
   -8.3971   -5.2500    0.0000 C   0  0  0  0  0  0  0  0  0 17  0  0
  -10.9952   -3.7500    0.0000 C   0  0  0  0  0  0  0  0  0 18  0  0
   -9.8790   -1.5112    0.0000 H   0  0  0  0  0  0  0  0  0  0  0  0
   -9.6962   -6.0000    0.0000 C   0  0  0  0  0  0  0  0  0 19  0  0
   -7.0981   -6.0000    0.0000 H   0  0  0  0  0  0  0  0  0  0  0  0
  -12.2942   -3.0000    0.0000 N   0  0  0  0  0  0  0  0  0  6  0  0
  -10.9952   -5.2500    0.0000 C   0  0  0  0  0  0  0  0  0 22  0  0
   -9.6962   -7.5000    0.0000 H   0  0  0  0  0  0  0  0  0  0  0  0
  -13.5933   -3.7500    0.0000 C   0  0  0  0  0  0  0  0  0 24  0  0
  -12.2942   -1.5000    0.0000 H   0  0  0  0  0  0  0  0  0  0  0  0
  -12.2942   -6.0000    0.0000 O   0  0  0  0  0  0  0  0  0  3  0  0
  -14.8923   -3.0000    0.0000 O   0  0  0  0  0  0  0  0  0  4  0  0
  -13.7761   -5.2388    0.0000 H   0  0  0  0  0  0  0  0  0  0  0  0
  -13.6750   -5.4139    0.0000 H   0  0  0  0  0  0  0  0  0  0  0  0
    3.7500    1.2990    0.0000 H   0  0  0  0  0  0  0  0  0  0  0  0
  1  2  1  0
  3  1  2  0
  1  4  1  0
  5  3  1  0
  3  6  1  0
  4  7  2  0
  4  8  1  0
  9  5  2  0
  5 10  1  0
  7  9  1  0
  7 11  1  0
 12  9  1  0
 13 12  1  0
 12 14  1  0
 12 15  1  0
 16 13  1  0
 13 17  1  0
 13 18  1  1
 19 16  1  0
 16 20  1  0
 17 21  1  0
 17 22  1  0
 17 23  1  0
 24 19  1  0
 19 25  1  0
 19 26  1  0
 27 24  1  0
 24 28  1  0
 24 29  1  6
 27 30  1  0
 28 31  2  0
 32 28  1  0
 31 33  1  0
 31 34  1  0
 35 32  2  0
 32 36  1  0
 33 37  1  0
 33 38  2  0
 38 35  1  0
 35 39  1  0
 37 40  1  0
 37 41  1  0
 38 42  1  0
 40 43  2  0
 40 44  1  0
 42 45  1  0
  2 46  1  0
M  END
>  <SMILES>  (1) 
CC(Cc1ccc(O)cc1)NCC(O)c1ccc(O)c(NC=O)c1

>  <Molecular Weight>  (1) 
330.4

>  <Substrate_ID>  (1) 
MOL0082

>  <Substrate>  (1) 


>  <Substrate_SMILES>  (1) 
COc1ccc(CC(C)NCC(O)c2ccc(O)c(NC=O)c2)cc1

>  <Reaction>  (1) 
O-demethylation

>  <Score>  (1) 
0.5194

>  <Reaction_Score>  (1) 
0.5724

>  <Bond_Score>  (1) 
0.4714

>  <Rank>  (1) 
1

>  <Subtype>  (1) 
1A2, 2C8, 2C9, 2C19, 2D6, 3A4

>  <Subtype_Scores>  (1) 
[1A2] SOM_score: 0.3775, Reaction_score: 0.5724, Score: 0.4649
[2C8] SOM_score: 0.1896, Reaction_score: 0.5724, Score: 0.3294
[2C9] SOM_score: 0.2707, Reaction_score: 0.5724, Score: 0.3936
[2C19] SOM_score: 0.3103, Reaction_score: 0.5724, Score: 0.4214
[2D6] SOM_score: 0.4714, Reaction_score: 0.5724, Score: 0.5194
[3A4] SOM_score: 0.3144, Reaction_score: 0.5724, Score: 0.4242


$$$$

     RDKit          2D

 50 51  0  0  0  0  0  0  0  0999 V2000
    3.5490   -3.1471    0.0000 N   0  0  0  0  0  0  0  0  0  5  0  0
    3.5490   -1.6471    0.0000 O   0  0  0  0  0  0  0  0  0 26  0  0
    4.8481   -0.8971    0.0000 H   0  0  0  0  0  0  0  0  0  0  0  0
    4.8481   -3.8971    0.0000 C   0  0  0  0  0  0  0  0  0  9  0  0
    2.2500   -3.8971    0.0000 C   0  0  0  0  0  0  0  0  0  7  0  0
    1.5000   -2.5981    0.0000 C   0  0  0  0  0  0  0  0  0  8  0  0
    3.0000   -5.1962    0.0000 C   0  0  0  0  0  0  0  0  0 11  0  0
    0.9510   -4.6471    0.0000 H   0  0  0  0  0  0  0  0  0  0  0  0
    0.7500   -1.2990    0.0000 C   0  0  0  0  0  0  0  0  0 12  0  0
    2.5790   -1.5560    0.0000 H   0  0  0  0  0  0  0  0  0  0  0  0
    0.2010   -3.3481    0.0000 H   0  0  0  0  0  0  0  0  0  0  0  0
    3.7500   -6.4952    0.0000 H   0  0  0  0  0  0  0  0  0  0  0  0
    1.7010   -5.9462    0.0000 H   0  0  0  0  0  0  0  0  0  0  0  0
    3.7874   -5.0715    0.0000 H   0  0  0  0  0  0  0  0  0  0  0  0
   -0.7500   -1.2990    0.0000 C   0  0  0  0  0  0  0  0  0 15  0  0
    1.5000   -0.0000    0.0000 C   0  0  0  0  0  0  0  0  0 16  0  0
   -1.5000    0.0000    0.0000 C   0  0  0  0  0  0  0  0  0 20  0  0
   -1.5000   -2.5981    0.0000 H   0  0  0  0  0  0  0  0  0  0  0  0
    0.7500    1.2990    0.0000 C   0  0  0  0  0  0  0  0  0 21  0  0
    3.0000   -0.0000    0.0000 H   0  0  0  0  0  0  0  0  0  0  0  0
   -0.7500    1.2990    0.0000 C   0  0  0  0  0  0  0  0  0 23  0  0
   -3.0000   -0.0000    0.0000 H   0  0  0  0  0  0  0  0  0  0  0  0
    1.5000    2.5981    0.0000 H   0  0  0  0  0  0  0  0  0  0  0  0
   -1.5000    2.5981    0.0000 O   0  0  0  0  0  0  0  0  0  2  0  0
   -3.0000    2.5981    0.0000 C   0  0  0  0  0  0  0  0  0 25  0  0
   -4.5000    2.5981    0.0000 H   0  0  0  0  0  0  0  0  0  0  0  0
   -3.0000    4.0981    0.0000 H   0  0  0  0  0  0  0  0  0  0  0  0
   -3.0000    1.0981    0.0000 H   0  0  0  0  0  0  0  0  0  0  0  0
    6.1471   -4.6471    0.0000 C   0  0  0  0  0  0  0  0  0 10  0  0
    4.5366   -4.6309    0.0000 H   0  0  0  0  0  0  0  0  0  0  0  0
    5.5981   -2.5981    0.0000 H   0  0  0  0  0  0  0  0  0  0  0  0
    5.3971   -5.9462    0.0000 O   0  0  0  0  0  0  0  0  0  1  0  0
    7.4462   -5.3971    0.0000 C   0  0  0  0  0  0  0  0  0 13  0  0
    6.8971   -3.3481    0.0000 H   0  0  0  0  0  0  0  0  0  0  0  0
    5.9832   -7.3269    0.0000 H   0  0  0  0  0  0  0  0  0  0  0  0
    7.4462   -6.8971    0.0000 C   0  0  0  0  0  0  0  0  0 14  0  0
    8.7452   -4.6471    0.0000 C   0  0  0  0  0  0  0  0  0 17  0  0
    8.7452   -7.6471    0.0000 C   0  0  0  0  0  0  0  0  0 18  0  0
    6.2482   -7.7999    0.0000 H   0  0  0  0  0  0  0  0  0  0  0  0
   10.0442   -5.3971    0.0000 C   0  0  0  0  0  0  0  0  0 19  0  0
    8.7452   -3.1471    0.0000 H   0  0  0  0  0  0  0  0  0  0  0  0
    8.7452   -9.1471    0.0000 N   0  0  0  0  0  0  0  0  0  6  0  0
   10.0442   -6.8971    0.0000 C   0  0  0  0  0  0  0  0  0 22  0  0
   11.3433   -4.6471    0.0000 H   0  0  0  0  0  0  0  0  0  0  0  0
   10.0442   -9.8971    0.0000 C   0  0  0  0  0  0  0  0  0 24  0  0
    7.4462   -9.8971    0.0000 H   0  0  0  0  0  0  0  0  0  0  0  0
   11.3433   -7.6471    0.0000 O   0  0  0  0  0  0  0  0  0  3  0  0
   10.0442  -11.3971    0.0000 O   0  0  0  0  0  0  0  0  0  4  0  0
   11.4250   -9.3111    0.0000 H   0  0  0  0  0  0  0  0  0  0  0  0
   11.5261   -9.1359    0.0000 H   0  0  0  0  0  0  0  0  0  0  0  0
  1  2  1  0
  2  3  1  0
  1  4  1  0
  1  5  1  0
  5  6  1  0
  5  7  1  0
  5  8  1  1
  6  9  1  0
  6 10  1  0
  6 11  1  0
  7 12  1  0
  7 13  1  0
  7 14  1  0
  9 15  2  0
 16  9  1  0
 15 17  1  0
 15 18  1  0
 19 16  2  0
 16 20  1  0
 17 21  2  0
 17 22  1  0
 21 19  1  0
 19 23  1  0
 21 24  1  0
 24 25  1  0
 25 26  1  0
 25 27  1  0
 25 28  1  0
 29  4  1  0
  4 30  1  0
  4 31  1  0
 32 29  1  0
 29 33  1  0
 29 34  1  6
 32 35  1  0
 33 36  2  0
 37 33  1  0
 36 38  1  0
 36 39  1  0
 40 37  2  0
 37 41  1  0
 38 42  1  0
 38 43  2  0
 43 40  1  0
 40 44  1  0
 42 45  1  0
 42 46  1  0
 43 47  1  0
 45 48  2  0
 45 49  1  0
 47 50  1  0
M  END
>  <SMILES>  (2) 
COc1ccc(CC(C)N(O)CC(O)c2ccc(O)c(NC=O)c2)cc1

>  <Molecular Weight>  (2) 
360.4

>  <Substrate_ID>  (2) 
MOL0082

>  <Substrate>  (2) 


>  <Substrate_SMILES>  (2) 
COc1ccc(CC(C)NCC(O)c2ccc(O)c(NC=O)c2)cc1

>  <Reaction>  (2) 
amine hydroxylation

>  <Score>  (2) 
0.0282

>  <Reaction_Score>  (2) 
0.0052

>  <Bond_Score>  (2) 
0.1524

>  <Rank>  (2) 
2

>  <Subtype>  (2) 
3A4

>  <Subtype_Scores>  (2) 
[3A4] SOM_score: 0.1524, Reaction_score: 0.0052, Score: 0.0282


$$$$
