
     RDKit          2D

 37 39  0  0  0  0  0  0  0  0999 V2000
    4.5000    1.5000    0.0000 N   0  0  0  0  0  0  0  0  0  3  0  0
    4.5000    0.0000    0.0000 C   0  0  0  0  0  0  0  0  0  5  0  0
    5.7990    2.2500    0.0000 C   0  0  0  0  0  0  0  0  0 20  0  0
    3.0000    0.0000    0.0000 C   0  0  0  0  0  0  0  0  0  6  0  0
    6.0000    0.0000    0.0000 C   0  0  0  0  0  0  0  0  0  4  0  0
    4.5000   -1.5000    0.0000 H   0  0  0  0  0  0  0  0  0  0  0  0
    1.5000    0.0000    0.0000 N   0  0  0  0  0  0  0  0  0  2  0  0
    2.8172    1.4888    0.0000 H   0  0  0  0  0  0  0  0  0  0  0  0
    3.0000   -1.5000    0.0000 H   0  0  0  0  0  0  0  0  0  0  0  0
    7.5000   -0.0000    0.0000 H   0  0  0  0  0  0  0  0  0  0  0  0
    6.0000   -1.5000    0.0000 H   0  0  0  0  0  0  0  0  0  0  0  0
    6.2857    0.7442    0.0000 H   0  0  0  0  0  0  0  0  0  0  0  0
    0.7500   -1.2990    0.0000 C   0  0  0  0  0  0  0  0  0  7  0  0
    0.7500    1.2990    0.0000 C   0  0  0  0  0  0  0  0  0 18  0  0
   -0.7500   -1.2990    0.0000 C   0  0  0  0  0  0  0  0  0 12  0  0
    1.5000   -2.5981    0.0000 C   0  0  0  0  0  0  0  0  0  8  0  0
   -0.7500    1.2990    0.0000 C   0  0  0  0  0  0  0  0  0 13  0  0
    1.5000    2.5981    0.0000 C   0  0  0  0  0  0  0  0  0 17  0  0
   -1.5000    0.0000    0.0000 S   0  0  0  0  0  0  0  0  0  1  0  0
   -1.5000   -2.5981    0.0000 C   0  0  0  0  0  0  0  0  0 11  0  0
    0.7500   -3.8971    0.0000 C   0  0  0  0  0  0  0  0  0  9  0  0
    3.0000   -2.5981    0.0000 H   0  0  0  0  0  0  0  0  0  0  0  0
   -1.5000    2.5981    0.0000 C   0  0  0  0  0  0  0  0  0 14  0  0
    0.7500    3.8971    0.0000 C   0  0  0  0  0  0  0  0  0 16  0  0
    2.9888    2.7809    0.0000 H   0  0  0  0  0  0  0  0  0  0  0  0
   -0.7500   -3.8971    0.0000 C   0  0  0  0  0  0  0  0  0 10  0  0
   -3.0000   -2.5981    0.0000 H   0  0  0  0  0  0  0  0  0  0  0  0
    1.5000   -5.1962    0.0000 H   0  0  0  0  0  0  0  0  0  0  0  0
   -0.7500    3.8971    0.0000 C   0  0  0  0  0  0  0  0  0 15  0  0
   -3.0000    2.5981    0.0000 H   0  0  0  0  0  0  0  0  0  0  0  0
    1.5000    5.1962    0.0000 H   0  0  0  0  0  0  0  0  0  0  0  0
   -1.5000   -5.1962    0.0000 H   0  0  0  0  0  0  0  0  0  0  0  0
   -1.5000    5.1962    0.0000 H   0  0  0  0  0  0  0  0  0  0  0  0
    7.0981    3.0000    0.0000 H   0  0  0  0  0  0  0  0  0  0  0  0
    5.0490    3.5490    0.0000 H   0  0  0  0  0  0  0  0  0  0  0  0
    6.2788    1.6134    0.0000 H   0  0  0  0  0  0  0  0  0  0  0  0
    3.4210    2.5420    0.0000 H   0  0  0  0  0  0  0  0  0  0  0  0
  1  2  1  0
  1  3  1  0
  4  2  1  0
  2  5  1  0
  2  6  1  0
  7  4  1  0
  4  8  1  0
  4  9  1  0
  5 10  1  0
  5 11  1  0
  5 12  1  0
 13  7  1  0
  7 14  1  0
 15 13  2  0
 13 16  1  0
 14 17  2  0
 18 14  1  0
 19 15  1  0
 20 15  1  0
 16 21  2  0
 16 22  1  0
 17 23  1  0
 17 19  1  0
 24 18  2  0
 18 25  1  0
 26 20  2  0
 20 27  1  0
 21 26  1  0
 21 28  1  0
 23 29  2  0
 23 30  1  0
 29 24  1  0
 24 31  1  0
 26 32  1  0
 29 33  1  0
  3 34  1  0
  3 35  1  0
  3 36  1  0
  1 37  1  0
M  END
>  <SMILES>  (1) 
CNC(C)CN1c2ccccc2Sc2ccccc21

>  <Molecular Weight>  (1) 
270.4

>  <Substrate_ID>  (1) 
MOL0092

>  <Substrate>  (1) 


>  <Substrate_SMILES>  (1) 
CC(CN1c2ccccc2Sc2ccccc21)N(C)C

>  <Reaction>  (1) 
N-demethylation_(tertiary_amine)

>  <Score>  (1) 
0.8474

>  <Reaction_Score>  (1) 
0.8983

>  <Bond_Score>  (1) 
0.7994

>  <Rank>  (1) 
1

>  <Subtype>  (1) 
1A2, 2A6, 2B6, 2C8, 2C9, 2C19, 2D6, 2E1, 3A4

>  <Subtype_Scores>  (1) 
[1A2] SOM_score: 0.7994, Reaction_score: 0.8983, Score: 0.8474
[2A6] SOM_score: 0.2316, Reaction_score: 0.8983, Score: 0.4561
[2B6] SOM_score: 0.5925, Reaction_score: 0.8983, Score: 0.7295
[2C8] SOM_score: 0.4600, Reaction_score: 0.8983, Score: 0.6428
[2C9] SOM_score: 0.5081, Reaction_score: 0.8983, Score: 0.6756
[2C19] SOM_score: 0.7305, Reaction_score: 0.8983, Score: 0.8100
[2D6] SOM_score: 0.7642, Reaction_score: 0.8983, Score: 0.8285
[2E1] SOM_score: 0.2346, Reaction_score: 0.8983, Score: 0.4591
[3A4] SOM_score: 0.7456, Reaction_score: 0.8983, Score: 0.8184


$$$$

     RDKit          2D

 41 43  0  0  0  0  0  0  0  0999 V2000
    0.7500   -1.2990    0.0000 C   0  0  0  0  0  0  0  0  0 12  0  0
    1.5000    0.0000    0.0000 S   0  0  0  0  0  4  0  0  0  1  0  0
    3.0000    0.0000    0.0000 O   0  0  0  0  0  0  0  0  0 21  0  0
    0.7500    1.2990    0.0000 C   0  0  0  0  0  0  0  0  0 13  0  0
   -0.7500   -1.2990    0.0000 C   0  0  0  0  0  0  0  0  0  7  0  0
    1.5000   -2.5981    0.0000 C   0  0  0  0  0  0  0  0  0 11  0  0
   -1.5000   -2.5981    0.0000 C   0  0  0  0  0  0  0  0  0  8  0  0
   -1.5000    0.0000    0.0000 N   0  0  0  0  0  0  0  0  0  2  0  0
    0.7500   -3.8971    0.0000 C   0  0  0  0  0  0  0  0  0 10  0  0
    3.0000   -2.5981    0.0000 H   0  0  0  0  0  0  0  0  0  0  0  0
   -0.7500   -3.8971    0.0000 C   0  0  0  0  0  0  0  0  0  9  0  0
   -3.0000   -2.5981    0.0000 H   0  0  0  0  0  0  0  0  0  0  0  0
   -3.0000    0.0000    0.0000 C   0  0  0  0  0  0  0  0  0  6  0  0
   -0.7500    1.2990    0.0000 C   0  0  0  0  0  0  0  0  0 18  0  0
    1.5000   -5.1962    0.0000 H   0  0  0  0  0  0  0  0  0  0  0  0
   -1.5000   -5.1962    0.0000 H   0  0  0  0  0  0  0  0  0  0  0  0
   -4.5000    0.0000    0.0000 C   0  0  0  0  0  0  0  0  0  5  0  0
   -3.0000   -1.5000    0.0000 H   0  0  0  0  0  0  0  0  0  0  0  0
   -2.4623    1.4003    0.0000 H   0  0  0  0  0  0  0  0  0  0  0  0
   -1.5000    2.5981    0.0000 C   0  0  0  0  0  0  0  0  0 17  0  0
   -4.5000    1.5000    0.0000 N   0  0  0  0  0  0  0  0  0  3  0  0
   -6.0000    0.0000    0.0000 C   0  0  0  0  0  0  0  0  0  4  0  0
   -4.5000   -1.5000    0.0000 H   0  0  0  0  0  0  0  0  0  0  0  0
   -0.7500    3.8971    0.0000 C   0  0  0  0  0  0  0  0  0 16  0  0
   -2.2735    2.7910    0.0000 H   0  0  0  0  0  0  0  0  0  0  0  0
   -3.2010    2.2500    0.0000 C   0  0  0  0  0  0  0  0  0 19  0  0
   -5.7990    2.2500    0.0000 C   0  0  0  0  0  0  0  0  0 20  0  0
   -7.5000    0.0000    0.0000 H   0  0  0  0  0  0  0  0  0  0  0  0
   -6.0000   -1.5000    0.0000 H   0  0  0  0  0  0  0  0  0  0  0  0
   -6.5377    1.4003    0.0000 H   0  0  0  0  0  0  0  0  0  0  0  0
    0.7500    3.8971    0.0000 C   0  0  0  0  0  0  0  0  0 15  0  0
   -1.5000    5.1962    0.0000 H   0  0  0  0  0  0  0  0  0  0  0  0
   -2.4931    2.9337    0.0000 H   0  0  0  0  0  0  0  0  0  0  0  0
   -3.9510    3.5490    0.0000 H   0  0  0  0  0  0  0  0  0  0  0  0
   -2.2982    1.0521    0.0000 H   0  0  0  0  0  0  0  0  0  0  0  0
   -7.0981    3.0000    0.0000 H   0  0  0  0  0  0  0  0  0  0  0  0
   -5.0490    3.5490    0.0000 H   0  0  0  0  0  0  0  0  0  0  0  0
   -6.7018    1.0521    0.0000 H   0  0  0  0  0  0  0  0  0  0  0  0
    1.5000    2.5981    0.0000 C   0  0  0  0  0  0  0  0  0 14  0  0
    1.5000    5.1962    0.0000 H   0  0  0  0  0  0  0  0  0  0  0  0
    3.0000    2.5981    0.0000 H   0  0  0  0  0  0  0  0  0  0  0  0
  1  2  1  0
  2  3  2  0
  2  4  1  0
  1  5  2  0
  6  1  1  0
  5  7  1  0
  5  8  1  0
  9  6  2  0
  6 10  1  0
  7 11  2  0
  7 12  1  0
  8 13  1  0
  8 14  1  0
 11  9  1  0
  9 15  1  0
 11 16  1  0
 13 17  1  0
 13 18  1  0
 13 19  1  0
 14  4  2  0
 20 14  1  0
 17 21  1  0
 17 22  1  0
 17 23  1  0
 24 20  2  0
 20 25  1  0
 21 26  1  0
 21 27  1  0
 22 28  1  0
 22 29  1  0
 22 30  1  0
 31 24  1  0
 24 32  1  0
 26 33  1  0
 26 34  1  0
 26 35  1  0
 27 36  1  0
 27 37  1  0
 27 38  1  0
 39 31  2  0
 31 40  1  0
  4 39  1  0
 39 41  1  0
M  END
>  <SMILES>  (2) 
CC(CN1c2ccccc2S(=O)c2ccccc21)N(C)C

>  <Molecular Weight>  (2) 
300.4

>  <Substrate_ID>  (2) 
MOL0092

>  <Substrate>  (2) 


>  <Substrate_SMILES>  (2) 
CC(CN1c2ccccc2Sc2ccccc21)N(C)C

>  <Reaction>  (2) 
sulfide_oxidation_(c-S-c),S-oxidation

>  <Score>  (2) 
0.4451

>  <Reaction_Score>  (2) 
0.2664

>  <Bond_Score>  (2) 
0.7438

>  <Rank>  (2) 
2

>  <Subtype>  (2) 
1A2, 2A6, 2B6, 2C8, 2C9, 2C19, 2D6, 2E1, 3A4

>  <Subtype_Scores>  (2) 
[1A2] SOM_score: 0.7438, Reaction_score: 0.2664, Score: 0.4451
[2A6] SOM_score: 0.5530, Reaction_score: 0.2664, Score: 0.3838
[2B6] SOM_score: 0.6983, Reaction_score: 0.2664, Score: 0.4313
[2C8] SOM_score: 0.3835, Reaction_score: 0.2664, Score: 0.3196
[2C9] SOM_score: 0.6948, Reaction_score: 0.2664, Score: 0.4302
[2C19] SOM_score: 0.6658, Reaction_score: 0.2664, Score: 0.4211
[2D6] SOM_score: 0.6753, Reaction_score: 0.2664, Score: 0.4241
[2E1] SOM_score: 0.4329, Reaction_score: 0.2664, Score: 0.3396
[3A4] SOM_score: 0.7392, Reaction_score: 0.2664, Score: 0.4437


$$$$

     RDKit          2D

 41 43  0  0  0  0  0  0  0  0999 V2000
    1.5000    0.0000    0.0000 N   0  0  0  0  0  0  0  0  0  2  0  0
    0.7500   -1.2990    0.0000 C   0  0  0  0  0  0  0  0  0  7  0  0
   -0.7500   -1.2990    0.0000 C   0  0  0  0  0  0  0  0  0 12  0  0
   -1.5000   -2.5981    0.0000 C   0  0  0  0  0  0  0  0  0 11  0  0
   -0.7500   -3.8971    0.0000 C   0  0  0  0  0  0  0  0  0 10  0  0
   -1.5000   -5.1962    0.0000 O   0  0  0  0  0  0  0  0  0 21  0  0
    0.7500   -3.8971    0.0000 C   0  0  0  0  0  0  0  0  0  9  0  0
    1.5000   -2.5981    0.0000 C   0  0  0  0  0  0  0  0  0  8  0  0
    3.0000    0.0000    0.0000 C   0  0  0  0  0  0  0  0  0  6  0  0
    0.7500    1.2990    0.0000 C   0  0  0  0  0  0  0  0  0 18  0  0
    4.5000    0.0000    0.0000 C   0  0  0  0  0  0  0  0  0  5  0  0
    2.4623    1.4003    0.0000 H   0  0  0  0  0  0  0  0  0  0  0  0
    3.0000   -1.5000    0.0000 H   0  0  0  0  0  0  0  0  0  0  0  0
   -0.7500    1.2990    0.0000 C   0  0  0  0  0  0  0  0  0 13  0  0
    1.5000    2.5981    0.0000 C   0  0  0  0  0  0  0  0  0 17  0  0
    4.5000    1.5000    0.0000 N   0  0  0  0  0  0  0  0  0  3  0  0
    6.0000    0.0000    0.0000 C   0  0  0  0  0  0  0  0  0  4  0  0
    4.5000   -1.5000    0.0000 H   0  0  0  0  0  0  0  0  0  0  0  0
   -1.5000    2.5981    0.0000 C   0  0  0  0  0  0  0  0  0 14  0  0
   -1.5000    0.0000    0.0000 S   0  0  0  0  0  0  0  0  0  1  0  0
    0.7500    3.8971    0.0000 C   0  0  0  0  0  0  0  0  0 16  0  0
    2.6789    2.8921    0.0000 H   0  0  0  0  0  0  0  0  0  0  0  0
    5.7990    2.2500    0.0000 C   0  0  0  0  0  0  0  0  0 19  0  0
    3.2010    2.2500    0.0000 C   0  0  0  0  0  0  0  0  0 20  0  0
    7.5000    0.0000    0.0000 H   0  0  0  0  0  0  0  0  0  0  0  0
    6.0000   -1.5000    0.0000 H   0  0  0  0  0  0  0  0  0  0  0  0
    6.2857    0.7442    0.0000 H   0  0  0  0  0  0  0  0  0  0  0  0
   -0.7500    3.8971    0.0000 C   0  0  0  0  0  0  0  0  0 15  0  0
   -3.0000    2.5981    0.0000 H   0  0  0  0  0  0  0  0  0  0  0  0
    1.5000    5.1962    0.0000 H   0  0  0  0  0  0  0  0  0  0  0  0
    7.0981    3.0000    0.0000 H   0  0  0  0  0  0  0  0  0  0  0  0
    5.0490    3.5490    0.0000 H   0  0  0  0  0  0  0  0  0  0  0  0
    6.2788    1.6134    0.0000 H   0  0  0  0  0  0  0  0  0  0  0  0
    2.1220    3.2920    0.0000 H   0  0  0  0  0  0  0  0  0  0  0  0
    3.9510    3.5490    0.0000 H   0  0  0  0  0  0  0  0  0  0  0  0
    2.2982    1.0521    0.0000 H   0  0  0  0  0  0  0  0  0  0  0  0
   -1.5000    5.1962    0.0000 H   0  0  0  0  0  0  0  0  0  0  0  0
   -3.0000   -2.5981    0.0000 H   0  0  0  0  0  0  0  0  0  0  0  0
    1.5000   -5.1962    0.0000 H   0  0  0  0  0  0  0  0  0  0  0  0
    3.0000   -2.5981    0.0000 H   0  0  0  0  0  0  0  0  0  0  0  0
   -0.7500   -6.4952    0.0000 H   0  0  0  0  0  0  0  0  0  0  0  0
  1  2  1  0
  2  3  2  0
  3  4  1  0
  4  5  2  0
  5  6  1  0
  5  7  1  0
  7  8  2  0
  8  2  1  0
  1  9  1  0
  1 10  1  0
  9 11  1  0
  9 12  1  0
  9 13  1  0
 10 14  2  0
 15 10  1  0
 11 16  1  0
 11 17  1  0
 11 18  1  0
 14 19  1  0
 14 20  1  0
 21 15  2  0
 15 22  1  0
 16 23  1  0
 16 24  1  0
 17 25  1  0
 17 26  1  0
 17 27  1  0
 19 28  2  0
 19 29  1  0
 20  3  1  0
 28 21  1  0
 21 30  1  0
 23 31  1  0
 23 32  1  0
 23 33  1  0
 24 34  1  0
 24 35  1  0
 24 36  1  0
 28 37  1  0
  4 38  1  0
  7 39  1  0
  8 40  1  0
  6 41  1  0
M  END
>  <SMILES>  (3) 
CC(CN1c2ccccc2Sc2cc(O)ccc21)N(C)C

>  <Molecular Weight>  (3) 
300.4

>  <Substrate_ID>  (3) 
MOL0092

>  <Substrate>  (3) 


>  <Substrate_SMILES>  (3) 
CC(CN1c2ccccc2Sc2ccccc21)N(C)C

>  <Reaction>  (3) 
aromatic_hydroxylation_(para_to_nitrogen),aromatic hydroxylation

>  <Score>  (3) 
0.1841

>  <Reaction_Score>  (3) 
0.1827

>  <Bond_Score>  (3) 
0.1855

>  <Rank>  (3) 
3

>  <Subtype>  (3) 
2C8, 2D6

>  <Subtype_Scores>  (3) 
[2C8] SOM_score: 0.0822, Reaction_score: 0.1733, Score: 0.1193
[2D6] SOM_score: 0.1435, Reaction_score: 0.1733, Score: 0.1577


$$$$

     RDKit          2D

 41 43  0  0  0  0  0  0  0  0999 V2000
    0.7500   -3.8971    0.0000 C   0  0  0  0  0  0  0  0  0  9  0  0
    1.5000   -5.1962    0.0000 O   0  0  0  0  0  0  0  0  0 21  0  0
    0.7500   -6.4952    0.0000 H   0  0  0  0  0  0  0  0  0  0  0  0
    1.5000   -2.5981    0.0000 C   0  0  0  0  0  0  0  0  0  8  0  0
   -0.7500   -3.8971    0.0000 C   0  0  0  0  0  0  0  0  0 10  0  0
    0.7500   -1.2990    0.0000 C   0  0  0  0  0  0  0  0  0  7  0  0
    3.0000   -2.5981    0.0000 H   0  0  0  0  0  0  0  0  0  0  0  0
   -1.5000   -2.5981    0.0000 C   0  0  0  0  0  0  0  0  0 11  0  0
   -1.5000   -5.1962    0.0000 H   0  0  0  0  0  0  0  0  0  0  0  0
   -0.7500   -1.2990    0.0000 C   0  0  0  0  0  0  0  0  0 12  0  0
    1.5000    0.0000    0.0000 N   0  0  0  0  0  0  0  0  0  2  0  0
   -3.0000   -2.5981    0.0000 H   0  0  0  0  0  0  0  0  0  0  0  0
   -1.5000    0.0000    0.0000 S   0  0  0  0  0  0  0  0  0  1  0  0
    3.0000    0.0000    0.0000 C   0  0  0  0  0  0  0  0  0  6  0  0
    0.7500    1.2990    0.0000 C   0  0  0  0  0  0  0  0  0 18  0  0
   -0.7500    1.2990    0.0000 C   0  0  0  0  0  0  0  0  0 13  0  0
    4.5000    0.0000    0.0000 C   0  0  0  0  0  0  0  0  0  5  0  0
    2.4623    1.4003    0.0000 H   0  0  0  0  0  0  0  0  0  0  0  0
    3.0000   -1.5000    0.0000 H   0  0  0  0  0  0  0  0  0  0  0  0
    1.5000    2.5981    0.0000 C   0  0  0  0  0  0  0  0  0 17  0  0
   -1.5000    2.5981    0.0000 C   0  0  0  0  0  0  0  0  0 14  0  0
    4.5000    1.5000    0.0000 N   0  0  0  0  0  0  0  0  0  3  0  0
    6.0000    0.0000    0.0000 C   0  0  0  0  0  0  0  0  0  4  0  0
    4.5000   -1.5000    0.0000 H   0  0  0  0  0  0  0  0  0  0  0  0
    0.7500    3.8971    0.0000 C   0  0  0  0  0  0  0  0  0 16  0  0
    2.2735    2.7910    0.0000 H   0  0  0  0  0  0  0  0  0  0  0  0
   -0.7500    3.8971    0.0000 C   0  0  0  0  0  0  0  0  0 15  0  0
   -3.0000    2.5981    0.0000 H   0  0  0  0  0  0  0  0  0  0  0  0
    3.2010    2.2500    0.0000 C   0  0  0  0  0  0  0  0  0 19  0  0
    5.7990    2.2500    0.0000 C   0  0  0  0  0  0  0  0  0 20  0  0
    7.5000    0.0000    0.0000 H   0  0  0  0  0  0  0  0  0  0  0  0
    6.0000   -1.5000    0.0000 H   0  0  0  0  0  0  0  0  0  0  0  0
    6.5377    1.4003    0.0000 H   0  0  0  0  0  0  0  0  0  0  0  0
    1.5000    5.1962    0.0000 H   0  0  0  0  0  0  0  0  0  0  0  0
   -1.5000    5.1962    0.0000 H   0  0  0  0  0  0  0  0  0  0  0  0
    2.4931    2.9337    0.0000 H   0  0  0  0  0  0  0  0  0  0  0  0
    3.9510    3.5490    0.0000 H   0  0  0  0  0  0  0  0  0  0  0  0
    2.2982    1.0521    0.0000 H   0  0  0  0  0  0  0  0  0  0  0  0
    7.0981    3.0000    0.0000 H   0  0  0  0  0  0  0  0  0  0  0  0
    5.0490    3.5490    0.0000 H   0  0  0  0  0  0  0  0  0  0  0  0
    6.7018    1.0521    0.0000 H   0  0  0  0  0  0  0  0  0  0  0  0
  1  2  1  0
  2  3  1  0
  4  1  2  0
  1  5  1  0
  6  4  1  0
  4  7  1  0
  5  8  2  0
  5  9  1  0
 10  6  2  0
  6 11  1  0
  8 10  1  0
  8 12  1  0
 13 10  1  0
 11 14  1  0
 11 15  1  0
 16 13  1  0
 14 17  1  0
 14 18  1  0
 14 19  1  0
 15 16  2  0
 20 15  1  0
 16 21  1  0
 17 22  1  0
 17 23  1  0
 17 24  1  0
 25 20  2  0
 20 26  1  0
 21 27  2  0
 21 28  1  0
 22 29  1  0
 22 30  1  0
 23 31  1  0
 23 32  1  0
 23 33  1  0
 27 25  1  0
 25 34  1  0
 27 35  1  0
 29 36  1  0
 29 37  1  0
 29 38  1  0
 30 39  1  0
 30 40  1  0
 30 41  1  0
M  END
>  <SMILES>  (4) 
CC(CN1c2ccccc2Sc2ccc(O)cc21)N(C)C

>  <Molecular Weight>  (4) 
300.4

>  <Substrate_ID>  (4) 
MOL0092

>  <Substrate>  (4) 


>  <Substrate_SMILES>  (4) 
CC(CN1c2ccccc2Sc2ccccc21)N(C)C

>  <Reaction>  (4) 
aromatic hydroxylation

>  <Score>  (4) 
0.1504

>  <Reaction_Score>  (4) 
0.1514

>  <Bond_Score>  (4) 
0.1494

>  <Rank>  (4) 
4

>  <Subtype>  (4) 
2C8

>  <Subtype_Scores>  (4) 
[2C8] SOM_score: 0.0739, Reaction_score: 0.1514, Score: 0.1058


$$$$

     RDKit          2D

 41 43  0  0  0  0  0  0  0  0999 V2000
    4.5000    0.0000    0.0000 C   0  0  0  0  0  0  0  0  0  5  0  0
    4.5000    1.5000    0.0000 N   0  0  0  0  0  4  0  0  0  3  0  0
    4.5000    3.0000    0.0000 C   0  0  0  0  0  0  0  0  0 20  0  0
    6.0000    1.5000    0.0000 C   0  0  0  0  0  0  0  0  0 19  0  0
    3.7088    1.5972    0.0000 O   0  0  0  0  0  1  0  0  0 21  0  0
    3.0000    0.0000    0.0000 C   0  0  0  0  0  0  0  0  0  6  0  0
    6.0000    0.0000    0.0000 C   0  0  0  0  0  0  0  0  0  4  0  0
    4.5000   -1.5000    0.0000 H   0  0  0  0  0  0  0  0  0  0  0  0
    1.5000    0.0000    0.0000 N   0  0  0  0  0  0  0  0  0  2  0  0
    2.8920    0.8791    0.0000 H   0  0  0  0  0  0  0  0  0  0  0  0
    3.0000   -1.5000    0.0000 H   0  0  0  0  0  0  0  0  0  0  0  0
    7.5000    0.0000    0.0000 H   0  0  0  0  0  0  0  0  0  0  0  0
    6.0000   -1.5000    0.0000 H   0  0  0  0  0  0  0  0  0  0  0  0
    6.3630    1.4554    0.0000 H   0  0  0  0  0  0  0  0  0  0  0  0
    0.7500   -1.2990    0.0000 C   0  0  0  0  0  0  0  0  0  7  0  0
    0.7500    1.2990    0.0000 C   0  0  0  0  0  0  0  0  0 18  0  0
   -0.7500   -1.2990    0.0000 C   0  0  0  0  0  0  0  0  0 12  0  0
    1.5000   -2.5981    0.0000 C   0  0  0  0  0  0  0  0  0  8  0  0
   -0.7500    1.2990    0.0000 C   0  0  0  0  0  0  0  0  0 13  0  0
    1.5000    2.5981    0.0000 C   0  0  0  0  0  0  0  0  0 17  0  0
   -1.5000    0.0000    0.0000 S   0  0  0  0  0  0  0  0  0  1  0  0
   -1.5000   -2.5981    0.0000 C   0  0  0  0  0  0  0  0  0 11  0  0
    0.7500   -3.8971    0.0000 C   0  0  0  0  0  0  0  0  0  9  0  0
    3.0000   -2.5981    0.0000 H   0  0  0  0  0  0  0  0  0  0  0  0
   -1.5000    2.5981    0.0000 C   0  0  0  0  0  0  0  0  0 14  0  0
    0.7500    3.8971    0.0000 C   0  0  0  0  0  0  0  0  0 16  0  0
    2.9888    2.7809    0.0000 H   0  0  0  0  0  0  0  0  0  0  0  0
   -0.7500   -3.8971    0.0000 C   0  0  0  0  0  0  0  0  0 10  0  0
   -3.0000   -2.5981    0.0000 H   0  0  0  0  0  0  0  0  0  0  0  0
    1.5000   -5.1962    0.0000 H   0  0  0  0  0  0  0  0  0  0  0  0
   -0.7500    3.8971    0.0000 C   0  0  0  0  0  0  0  0  0 15  0  0
   -3.0000    2.5981    0.0000 H   0  0  0  0  0  0  0  0  0  0  0  0
    1.5000    5.1962    0.0000 H   0  0  0  0  0  0  0  0  0  0  0  0
   -1.5000   -5.1962    0.0000 H   0  0  0  0  0  0  0  0  0  0  0  0
   -1.5000    5.1962    0.0000 H   0  0  0  0  0  0  0  0  0  0  0  0
    4.5000    4.5000    0.0000 H   0  0  0  0  0  0  0  0  0  0  0  0
    5.9888    3.1828    0.0000 H   0  0  0  0  0  0  0  0  0  0  0  0
    3.0112    3.1828    0.0000 H   0  0  0  0  0  0  0  0  0  0  0  0
    7.5000    1.5000    0.0000 H   0  0  0  0  0  0  0  0  0  0  0  0
    6.1828    2.9888    0.0000 H   0  0  0  0  0  0  0  0  0  0  0  0
    6.3630    0.0446    0.0000 H   0  0  0  0  0  0  0  0  0  0  0  0
  1  2  1  0
  2  3  1  0
  2  4  1  0
  2  5  1  0
  6  1  1  0
  1  7  1  0
  1  8  1  0
  9  6  1  0
  6 10  1  0
  6 11  1  0
  7 12  1  0
  7 13  1  0
  7 14  1  0
 15  9  1  0
  9 16  1  0
 17 15  2  0
 15 18  1  0
 16 19  2  0
 20 16  1  0
 21 17  1  0
 22 17  1  0
 18 23  2  0
 18 24  1  0
 19 25  1  0
 19 21  1  0
 26 20  2  0
 20 27  1  0
 28 22  2  0
 22 29  1  0
 23 28  1  0
 23 30  1  0
 25 31  2  0
 25 32  1  0
 31 26  1  0
 26 33  1  0
 28 34  1  0
 31 35  1  0
  3 36  1  0
  3 37  1  0
  3 38  1  0
  4 39  1  0
  4 40  1  0
  4 41  1  0
M  CHG  2   2   1   5  -1
M  END
>  <SMILES>  (5) 
CC(CN1c2ccccc2Sc2ccccc21)[N+](C)(C)[O-]

>  <Molecular Weight>  (5) 
300.4

>  <Substrate_ID>  (5) 
MOL0092

>  <Substrate>  (5) 


>  <Substrate_SMILES>  (5) 
CC(CN1c2ccccc2Sc2ccccc21)N(C)C

>  <Reaction>  (5) 
N-oxidation_(RN(CH3)2),N-oxidation

>  <Score>  (5) 
0.1184

>  <Reaction_Score>  (5) 
0.0175

>  <Bond_Score>  (5) 
0.8031

>  <Rank>  (5) 
5

>  <Subtype>  (5) 
1A2, 2A6, 2B6, 2C8, 2C9, 2C19, 2D6, 2E1, 3A4

>  <Subtype_Scores>  (5) 
[1A2] SOM_score: 0.8031, Reaction_score: 0.0175, Score: 0.1184
[2A6] SOM_score: 0.2203, Reaction_score: 0.0175, Score: 0.0620
[2B6] SOM_score: 0.6089, Reaction_score: 0.0175, Score: 0.1031
[2C8] SOM_score: 0.5346, Reaction_score: 0.0175, Score: 0.0966
[2C9] SOM_score: 0.5432, Reaction_score: 0.0175, Score: 0.0974
[2C19] SOM_score: 0.7330, Reaction_score: 0.0175, Score: 0.1131
[2D6] SOM_score: 0.7757, Reaction_score: 0.0175, Score: 0.1164
[2E1] SOM_score: 0.2233, Reaction_score: 0.0175, Score: 0.0624
[3A4] SOM_score: 0.7802, Reaction_score: 0.0175, Score: 0.1167


$$$$
