
     RDKit          2D

 40 41  0  0  0  0  0  0  0  0999 V2000
   -0.9791    2.9544    0.0000 N   0  0  0  0  0  0  0  0  0  2  0  0
   -2.3886    2.4414    0.0000 C   0  0  0  0  0  0  0  0  0 21  0  0
    0.1700    1.9902    0.0000 C   0  0  0  0  0  0  0  0  0 22  0  0
   -2.6491    0.9642    0.0000 C   0  0  0  0  0  0  0  0  0 18  0  0
   -2.6491    3.9186    0.0000 H   0  0  0  0  0  0  0  0  0  0  0  0
   -3.6036    2.4414    0.0000 H   0  0  0  0  0  0  0  0  0  0  0  0
   -0.0905    0.5130    0.0000 C   0  0  0  0  0  0  0  0  0 19  0  0
    1.5796    1.4772    0.0000 H   0  0  0  0  0  0  0  0  0  0  0  0
    0.9200    3.2893    0.0000 H   0  0  0  0  0  0  0  0  0  0  0  0
   -1.5000   -0.0000    0.0000 C   0  0  0  0  0  0  0  0  0 26  0  0
   -3.7316    1.5158    0.0000 H   0  0  0  0  0  0  0  0  0  0  0  0
   -3.4087    0.1776    0.0000 H   0  0  0  0  0  0  0  0  0  0  0  0
    0.1700   -0.9642    0.0000 H   0  0  0  0  0  0  0  0  0  0  0  0
    1.4095    0.5130    0.0000 H   0  0  0  0  0  0  0  0  0  0  0  0
   -2.6491   -0.9642    0.0000 N   0  0  0  0  0  0  0  0  0  3  0  0
   -0.7500   -1.2990    0.0000 H   0  0  0  0  0  0  0  0  0  0  0  0
   -4.0586   -0.4512    0.0000 C   0  0  0  0  0  0  0  0  0 23  0  0
   -2.3886   -2.4414    0.0000 C   0  0  0  0  0  0  0  0  0 25  0  0
   -4.4972    0.9833    0.0000 O   0  0  0  0  0  0  0  0  0  1  0  0
   -5.2077   -1.4153    0.0000 C   0  0  0  0  0  0  0  0  0 16  0  0
   -3.5377   -3.4056    0.0000 C   0  0  0  0  0  0  0  0  0 13  0  0
   -0.9791   -2.9544    0.0000 C   0  0  0  0  0  0  0  0  0 14  0  0
   -6.3567   -2.3795    0.0000 C   0  0  0  0  0  0  0  0  0 15  0  0
   -6.1719   -0.2663    0.0000 H   0  0  0  0  0  0  0  0  0  0  0  0
   -4.6121   -2.3324    0.0000 H   0  0  0  0  0  0  0  0  0  0  0  0
   -3.2772   -4.8828    0.0000 C   0  0  0  0  0  0  0  0  0  9  0  0
   -4.6252   -3.2913    0.0000 H   0  0  0  0  0  0  0  0  0  0  0  0
   -0.7186   -4.4316    0.0000 C   0  0  0  0  0  0  0  0  0 10  0  0
    0.1700   -1.9902    0.0000 H   0  0  0  0  0  0  0  0  0  0  0  0
   -7.5058   -3.3437    0.0000 C   0  0  0  0  0  0  0  0  0  4  0  0
   -7.3209   -1.2304    0.0000 H   0  0  0  0  0  0  0  0  0  0  0  0
   -5.5398   -3.6375    0.0000 H   0  0  0  0  0  0  0  0  0  0  0  0
   -1.8676   -5.3958    0.0000 C   0  0  0  0  0  0  0  0  0  6  0  0
   -4.4263   -5.8470    0.0000 H   0  0  0  0  0  0  0  0  0  0  0  0
    0.6910   -4.9447    0.0000 H   0  0  0  0  0  0  0  0  0  0  0  0
   -8.6549   -4.3079    0.0000 H   0  0  0  0  0  0  0  0  0  0  0  0
   -8.4700   -2.1946    0.0000 H   0  0  0  0  0  0  0  0  0  0  0  0
   -6.5416   -4.4928    0.0000 H   0  0  0  0  0  0  0  0  0  0  0  0
   -1.6072   -6.8730    0.0000 H   0  0  0  0  0  0  0  0  0  0  0  0
   -0.7186    4.4316    0.0000 H   0  0  0  0  0  0  0  0  0  0  0  0
  2  1  1  0
  1  3  1  0
  4  2  1  0
  2  5  1  0
  2  6  1  0
  3  7  1  0
  3  8  1  0
  3  9  1  0
 10  4  1  0
  4 11  1  0
  4 12  1  0
  7 10  1  0
  7 13  1  0
  7 14  1  0
 15 10  1  0
 10 16  1  0
 17 15  1  0
 15 18  1  0
 19 17  2  0
 17 20  1  0
 18 21  2  0
 22 18  1  0
 20 23  1  0
 20 24  1  0
 20 25  1  0
 21 26  1  0
 21 27  1  0
 28 22  2  0
 22 29  1  0
 23 30  1  0
 23 31  1  0
 23 32  1  0
 26 33  2  0
 26 34  1  0
 33 28  1  0
 28 35  1  0
 30 36  1  0
 30 37  1  0
 30 38  1  0
 33 39  1  0
  1 40  1  0
M  END
>  <SMILES>  (1) 
CCCC(=O)N(c1ccccc1)C1CCNCC1

>  <Molecular Weight>  (1) 
246.4

>  <Substrate_ID>  (1) 
MOL0010

>  <Substrate>  (1) 


>  <Substrate_SMILES>  (1) 
CCCC(=O)N(c1ccccc1)C1CCN(CCc2ccccc2)CC1

>  <Reaction>  (1) 
N-dealkylation_(tertiaryN-CH2-alkyl)

>  <Score>  (1) 
0.5259

>  <Reaction_Score>  (1) 
0.4977

>  <Bond_Score>  (1) 
0.5557

>  <Rank>  (1) 
1

>  <Subtype>  (1) 
2C8, 2C19, 2D6, 3A4

>  <Subtype_Scores>  (1) 
[2C8] SOM_score: 0.1838, Reaction_score: 0.4977, Score: 0.3024
[2C19] SOM_score: 0.1557, Reaction_score: 0.4977, Score: 0.2783
[2D6] SOM_score: 0.1688, Reaction_score: 0.4977, Score: 0.2899
[3A4] SOM_score: 0.5557, Reaction_score: 0.4977, Score: 0.5259


$$$$

     RDKit          2D

 19 19  0  0  0  0  0  0  0  0999 V2000
    6.0000    0.0000    0.0000 O   0  0  0  0  0  0  0  0  0 27  0  0
    4.5000    0.0000    0.0000 C   0  0  0  0  0  0  0  0  0 20  0  0
    3.0000    0.0000    0.0000 C   0  0  0  0  0  0  0  0  0 17  0  0
    4.5000    1.5000    0.0000 H   0  0  0  0  0  0  0  0  0  0  0  0
    4.5000   -1.5000    0.0000 H   0  0  0  0  0  0  0  0  0  0  0  0
    1.5000    0.0000    0.0000 C   0  0  0  0  0  0  0  0  0 24  0  0
    3.0000   -1.5000    0.0000 H   0  0  0  0  0  0  0  0  0  0  0  0
    3.0000    1.5000    0.0000 H   0  0  0  0  0  0  0  0  0  0  0  0
    0.7500   -1.2990    0.0000 C   0  0  0  0  0  0  0  0  0 11  0  0
    0.7500    1.2990    0.0000 C   0  0  0  0  0  0  0  0  0 12  0  0
   -0.7500   -1.2990    0.0000 C   0  0  0  0  0  0  0  0  0  7  0  0
    1.5000   -2.5981    0.0000 H   0  0  0  0  0  0  0  0  0  0  0  0
   -0.7500    1.2990    0.0000 C   0  0  0  0  0  0  0  0  0  8  0  0
    1.5000    2.5981    0.0000 H   0  0  0  0  0  0  0  0  0  0  0  0
   -1.5000    0.0000    0.0000 C   0  0  0  0  0  0  0  0  0  5  0  0
   -1.5000   -2.5981    0.0000 H   0  0  0  0  0  0  0  0  0  0  0  0
   -1.5000    2.5981    0.0000 H   0  0  0  0  0  0  0  0  0  0  0  0
   -3.0000    0.0000    0.0000 H   0  0  0  0  0  0  0  0  0  0  0  0
    6.7500   -1.2990    0.0000 H   0  0  0  0  0  0  0  0  0  0  0  0
  1  2  1  0
  2  3  1  0
  2  4  1  0
  2  5  1  0
  3  6  1  0
  3  7  1  0
  3  8  1  0
  6  9  2  0
 10  6  1  0
  9 11  1  0
  9 12  1  0
 13 10  2  0
 10 14  1  0
 11 15  2  0
 11 16  1  0
 15 13  1  0
 13 17  1  0
 15 18  1  0
  1 19  1  0
M  END
>  <SMILES>  (2) 
OCCc1ccccc1

>  <Molecular Weight>  (2) 
122.2

>  <Substrate_ID>  (2) 
MOL0010

>  <Substrate>  (2) 


>  <Substrate_SMILES>  (2) 
CCCC(=O)N(c1ccccc1)C1CCN(CCc2ccccc2)CC1

>  <Reaction>  (2) 
N-dealkylation_(tertiaryN-CH2-alkyl)

>  <Score>  (2) 
0.5259

>  <Reaction_Score>  (2) 
0.4977

>  <Bond_Score>  (2) 
0.5557

>  <Rank>  (2) 
1

>  <Subtype>  (2) 
2C8, 2C19, 2D6, 3A4

>  <Subtype_Scores>  (2) 
[2C8] SOM_score: 0.1838, Reaction_score: 0.4977, Score: 0.3024
[2C19] SOM_score: 0.1557, Reaction_score: 0.4977, Score: 0.2783
[2D6] SOM_score: 0.1688, Reaction_score: 0.4977, Score: 0.2899
[3A4] SOM_score: 0.5557, Reaction_score: 0.4977, Score: 0.5259


$$$$

     RDKit          2D

 17 17  0  0  0  0  0  0  0  0999 V2000
    4.5000    0.0000    0.0000 C   0  0  0  0  0  0  0  0  0 20  0  0
    5.2500    1.2990    0.0000 O   0  0  0  0  0  0  0  0  0 27  0  0
    3.0000    0.0000    0.0000 C   0  0  0  0  0  0  0  0  0 17  0  0
    5.2500   -1.2990    0.0000 H   0  0  0  0  0  0  0  0  0  0  0  0
    1.5000    0.0000    0.0000 C   0  0  0  0  0  0  0  0  0 24  0  0
    3.0000    1.5000    0.0000 H   0  0  0  0  0  0  0  0  0  0  0  0
    3.0000   -1.5000    0.0000 H   0  0  0  0  0  0  0  0  0  0  0  0
    0.7500   -1.2990    0.0000 C   0  0  0  0  0  0  0  0  0 11  0  0
    0.7500    1.2990    0.0000 C   0  0  0  0  0  0  0  0  0 12  0  0
   -0.7500   -1.2990    0.0000 C   0  0  0  0  0  0  0  0  0  7  0  0
    1.5000   -2.5981    0.0000 H   0  0  0  0  0  0  0  0  0  0  0  0
   -0.7500    1.2990    0.0000 C   0  0  0  0  0  0  0  0  0  8  0  0
    1.5000    2.5981    0.0000 H   0  0  0  0  0  0  0  0  0  0  0  0
   -1.5000    0.0000    0.0000 C   0  0  0  0  0  0  0  0  0  5  0  0
   -1.5000   -2.5981    0.0000 H   0  0  0  0  0  0  0  0  0  0  0  0
   -1.5000    2.5981    0.0000 H   0  0  0  0  0  0  0  0  0  0  0  0
   -3.0000    0.0000    0.0000 H   0  0  0  0  0  0  0  0  0  0  0  0
  1  2  2  0
  1  3  1  0
  1  4  1  0
  3  5  1  0
  3  6  1  0
  3  7  1  0
  5  8  2  0
  9  5  1  0
  8 10  1  0
  8 11  1  0
 12  9  2  0
  9 13  1  0
 10 14  2  0
 10 15  1  0
 14 12  1  0
 12 16  1  0
 14 17  1  0
M  END
>  <SMILES>  (3) 
O=CCc1ccccc1

>  <Molecular Weight>  (3) 
120.2

>  <Substrate_ID>  (3) 
MOL0010

>  <Substrate>  (3) 


>  <Substrate_SMILES>  (3) 
CCCC(=O)N(c1ccccc1)C1CCN(CCc2ccccc2)CC1

>  <Reaction>  (3) 
N-dealkylation_(hetero_ring)

>  <Score>  (3) 
0.5259

>  <Reaction_Score>  (3) 
0.4977

>  <Bond_Score>  (3) 
0.5557

>  <Rank>  (3) 
1

>  <Subtype>  (3) 
2C8, 2C19, 2D6, 3A4

>  <Subtype_Scores>  (3) 
[2C8] SOM_score: 0.1838, Reaction_score: 0.4977, Score: 0.3024
[2C19] SOM_score: 0.1557, Reaction_score: 0.4977, Score: 0.2783
[2D6] SOM_score: 0.1688, Reaction_score: 0.4977, Score: 0.2899
[3A4] SOM_score: 0.5557, Reaction_score: 0.4977, Score: 0.5259


$$$$

     RDKit          2D

 57 59  0  0  0  0  0  0  0  0999 V2000
    1.5000   -2.5981    0.0000 N   0  0  0  0  0  0  0  0  0  3  0  0
    0.7500   -1.2990    0.0000 C   0  0  0  0  0  0  0  0  0 25  0  0
    1.5000    0.0000    0.0000 C   0  0  0  0  0  0  0  0  0 14  0  0
    0.7500    1.2990    0.0000 C   0  0  0  0  0  0  0  0  0 10  0  0
   -0.7500    1.2990    0.0000 C   0  0  0  0  0  0  0  0  0  6  0  0
   -1.5000    2.5981    0.0000 O   0  0  0  0  0  0  0  0  0 27  0  0
   -1.5000    0.0000    0.0000 C   0  0  0  0  0  0  0  0  0  9  0  0
   -0.7500   -1.2990    0.0000 C   0  0  0  0  0  0  0  0  0 13  0  0
    0.7500   -3.8971    0.0000 C   0  0  0  0  0  0  0  0  0 23  0  0
    3.0000   -2.5981    0.0000 C   0  0  0  0  0  0  0  0  0 26  0  0
    1.2775   -5.1398    0.0000 O   0  0  0  0  0  0  0  0  0  1  0  0
   -0.7500   -3.8971    0.0000 C   0  0  0  0  0  0  0  0  0 16  0  0
    2.7395   -4.0753    0.0000 C   0  0  0  0  0  0  0  0  0 18  0  0
    4.4095   -2.0850    0.0000 C   0  0  0  0  0  0  0  0  0 19  0  0
    2.7395   -1.1209    0.0000 H   0  0  0  0  0  0  0  0  0  0  0  0
   -2.2500   -3.8971    0.0000 C   0  0  0  0  0  0  0  0  0 15  0  0
   -0.7500   -5.3971    0.0000 H   0  0  0  0  0  0  0  0  0  0  0  0
   -0.8833   -2.8118    0.0000 H   0  0  0  0  0  0  0  0  0  0  0  0
    3.8886   -5.0395    0.0000 C   0  0  0  0  0  0  0  0  0 21  0  0
    2.2648   -5.1937    0.0000 H   0  0  0  0  0  0  0  0  0  0  0  0
    1.6520   -3.9610    0.0000 H   0  0  0  0  0  0  0  0  0  0  0  0
    5.5586   -3.0492    0.0000 C   0  0  0  0  0  0  0  0  0 22  0  0
    3.6595   -0.7860    0.0000 H   0  0  0  0  0  0  0  0  0  0  0  0
    5.5586   -1.1209    0.0000 H   0  0  0  0  0  0  0  0  0  0  0  0
   -3.7500   -3.8971    0.0000 C   0  0  0  0  0  0  0  0  0  4  0  0
   -2.2500   -5.3971    0.0000 H   0  0  0  0  0  0  0  0  0  0  0  0
   -2.4328   -2.4083    0.0000 H   0  0  0  0  0  0  0  0  0  0  0  0
    5.2981   -4.5264    0.0000 N   0  0  0  0  0  0  0  0  0  2  0  0
    4.4747   -6.4202    0.0000 H   0  0  0  0  0  0  0  0  0  0  0  0
    2.8544   -5.9072    0.0000 H   0  0  0  0  0  0  0  0  0  0  0  0
    6.3086   -1.7502    0.0000 H   0  0  0  0  0  0  0  0  0  0  0  0
    7.0202   -3.3866    0.0000 H   0  0  0  0  0  0  0  0  0  0  0  0
   -5.2500   -3.8971    0.0000 H   0  0  0  0  0  0  0  0  0  0  0  0
   -3.7500   -5.3971    0.0000 H   0  0  0  0  0  0  0  0  0  0  0  0
   -3.7500   -2.3971    0.0000 H   0  0  0  0  0  0  0  0  0  0  0  0
    6.4472   -5.4906    0.0000 C   0  0  0  0  0  0  0  0  0 20  0  0
    7.5963   -6.4548    0.0000 C   0  0  0  0  0  0  0  0  0 17  0  0
    7.5443   -4.4677    0.0000 H   0  0  0  0  0  0  0  0  0  0  0  0
    5.6303   -6.7486    0.0000 H   0  0  0  0  0  0  0  0  0  0  0  0
    8.7453   -7.4190    0.0000 C   0  0  0  0  0  0  0  0  0 24  0  0
    6.6321   -7.6039    0.0000 H   0  0  0  0  0  0  0  0  0  0  0  0
    8.5604   -5.3057    0.0000 H   0  0  0  0  0  0  0  0  0  0  0  0
    8.4849   -8.8962    0.0000 C   0  0  0  0  0  0  0  0  0 11  0  0
   10.1549   -6.9060    0.0000 C   0  0  0  0  0  0  0  0  0 12  0  0
    9.6339   -9.8604    0.0000 C   0  0  0  0  0  0  0  0  0  7  0  0
    7.0753   -9.4092    0.0000 H   0  0  0  0  0  0  0  0  0  0  0  0
   11.3039   -7.8701    0.0000 C   0  0  0  0  0  0  0  0  0  8  0  0
   10.4153   -5.4287    0.0000 H   0  0  0  0  0  0  0  0  0  0  0  0
   11.0435   -9.3473    0.0000 C   0  0  0  0  0  0  0  0  0  5  0  0
    9.3735  -11.3376    0.0000 H   0  0  0  0  0  0  0  0  0  0  0  0
   12.7135   -7.3571    0.0000 H   0  0  0  0  0  0  0  0  0  0  0  0
   12.1925  -10.3115    0.0000 H   0  0  0  0  0  0  0  0  0  0  0  0
    3.0000    0.0000    0.0000 H   0  0  0  0  0  0  0  0  0  0  0  0
    1.5000    2.5981    0.0000 H   0  0  0  0  0  0  0  0  0  0  0  0
   -3.0000    0.0000    0.0000 H   0  0  0  0  0  0  0  0  0  0  0  0
   -1.5097   -2.0856    0.0000 H   0  0  0  0  0  0  0  0  0  0  0  0
   -3.0000    2.5981    0.0000 H   0  0  0  0  0  0  0  0  0  0  0  0
  1  2  1  0
  2  3  2  0
  3  4  1  0
  4  5  2  0
  5  6  1  0
  5  7  1  0
  7  8  2  0
  8  2  1  0
  9  1  1  0
  1 10  1  0
 11  9  2  0
  9 12  1  0
 10 13  1  0
 14 10  1  0
 10 15  1  0
 12 16  1  0
 12 17  1  0
 12 18  1  0
 13 19  1  0
 13 20  1  0
 13 21  1  0
 22 14  1  0
 14 23  1  0
 14 24  1  0
 16 25  1  0
 16 26  1  0
 16 27  1  0
 19 28  1  0
 19 29  1  0
 19 30  1  0
 28 22  1  0
 22 31  1  0
 22 32  1  0
 25 33  1  0
 25 34  1  0
 25 35  1  0
 28 36  1  0
 36 37  1  0
 36 38  1  0
 36 39  1  0
 37 40  1  0
 37 41  1  0
 37 42  1  0
 40 43  2  0
 44 40  1  0
 43 45  1  0
 43 46  1  0
 47 44  2  0
 44 48  1  0
 45 49  2  0
 45 50  1  0
 49 47  1  0
 47 51  1  0
 49 52  1  0
  3 53  1  0
  4 54  1  0
  7 55  1  0
  8 56  1  0
  6 57  1  0
M  END
>  <SMILES>  (4) 
CCCC(=O)N(c1ccc(O)cc1)C1CCN(CCc2ccccc2)CC1

>  <Molecular Weight>  (4) 
366.5

>  <Substrate_ID>  (4) 
MOL0010

>  <Substrate>  (4) 


>  <Substrate_SMILES>  (4) 
CCCC(=O)N(c1ccccc1)C1CCN(CCc2ccccc2)CC1

>  <Reaction>  (4) 
aromatic_hydroxylation_(para_to_nitrogen),aromatic hydroxylation

>  <Score>  (4) 
0.1866

>  <Reaction_Score>  (4) 
0.2222

>  <Bond_Score>  (4) 
0.1567

>  <Rank>  (4) 
2

>  <Subtype>  (4) 
2C8, 2C9, 3A4

>  <Subtype_Scores>  (4) 
[2C8] SOM_score: 0.1032, Reaction_score: 0.2222, Score: 0.1514
[2C9] SOM_score: 0.1567, Reaction_score: 0.2222, Score: 0.1866
[3A4] SOM_score: 0.1520, Reaction_score: 0.2222, Score: 0.1838


$$$$

     RDKit          2D

 57 59  0  0  0  0  0  0  0  0999 V2000
    1.5000   -2.5981    0.0000 C   0  0  0  0  0  0  0  0  0 17  0  0
    0.7500   -1.2990    0.0000 C   0  0  0  0  0  0  0  0  0 24  0  0
    1.5000   -0.0000    0.0000 C   0  0  0  0  0  0  0  0  0 12  0  0
    0.7500    1.2990    0.0000 C   0  0  0  0  0  0  0  0  0  8  0  0
   -0.7500    1.2990    0.0000 C   0  0  0  0  0  0  0  0  0  5  0  0
   -1.5000    2.5981    0.0000 O   0  0  0  0  0  0  0  0  0 27  0  0
   -1.5000   -0.0000    0.0000 C   0  0  0  0  0  0  0  0  0  7  0  0
   -0.7500   -1.2990    0.0000 C   0  0  0  0  0  0  0  0  0 11  0  0
    2.2500   -3.8971    0.0000 C   0  0  0  0  0  0  0  0  0 20  0  0
    0.2010   -3.3481    0.0000 H   0  0  0  0  0  0  0  0  0  0  0  0
    2.7990   -1.8481    0.0000 H   0  0  0  0  0  0  0  0  0  0  0  0
    3.0000   -5.1962    0.0000 N   0  0  0  0  0  0  0  0  0  2  0  0
    3.4479   -2.9944    0.0000 H   0  0  0  0  0  0  0  0  0  0  0  0
    0.8692   -4.4832    0.0000 H   0  0  0  0  0  0  0  0  0  0  0  0
    2.2500   -6.4952    0.0000 C   0  0  0  0  0  0  0  0  0 21  0  0
    4.5000   -5.1962    0.0000 C   0  0  0  0  0  0  0  0  0 22  0  0
    3.0000   -7.7942    0.0000 C   0  0  0  0  0  0  0  0  0 18  0  0
    1.1009   -7.4594    0.0000 H   0  0  0  0  0  0  0  0  0  0  0  0
    0.9920   -5.6783    0.0000 H   0  0  0  0  0  0  0  0  0  0  0  0
    5.2500   -6.4952    0.0000 C   0  0  0  0  0  0  0  0  0 19  0  0
    4.4215   -3.6982    0.0000 H   0  0  0  0  0  0  0  0  0  0  0  0
    5.2103   -4.8342    0.0000 H   0  0  0  0  0  0  0  0  0  0  0  0
    4.5000   -7.7942    0.0000 C   0  0  0  0  0  0  0  0  0 26  0  0
    3.2605   -9.2714    0.0000 H   0  0  0  0  0  0  0  0  0  0  0  0
    1.5905   -8.3073    0.0000 H   0  0  0  0  0  0  0  0  0  0  0  0
    5.9641   -5.5122    0.0000 H   0  0  0  0  0  0  0  0  0  0  0  0
    6.2329   -6.9745    0.0000 H   0  0  0  0  0  0  0  0  0  0  0  0
    5.9095   -8.3073    0.0000 N   0  0  0  0  0  0  0  0  0  3  0  0
    4.2395   -9.2714    0.0000 H   0  0  0  0  0  0  0  0  0  0  0  0
    6.1700   -9.7845    0.0000 C   0  0  0  0  0  0  0  0  0 23  0  0
    7.0586   -7.3431    0.0000 C   0  0  0  0  0  0  0  0  0 25  0  0
    5.0209  -10.7487    0.0000 O   0  0  0  0  0  0  0  0  0  1  0  0
    7.5796  -10.2975    0.0000 C   0  0  0  0  0  0  0  0  0 16  0  0
    8.4681   -7.8561    0.0000 C   0  0  0  0  0  0  0  0  0 13  0  0
    6.7981   -5.8659    0.0000 C   0  0  0  0  0  0  0  0  0 14  0  0
    8.9891  -10.8105    0.0000 C   0  0  0  0  0  0  0  0  0 15  0  0
    7.0665  -11.7070    0.0000 H   0  0  0  0  0  0  0  0  0  0  0  0
    8.0760   -9.3232    0.0000 H   0  0  0  0  0  0  0  0  0  0  0  0
    9.6172   -6.8919    0.0000 C   0  0  0  0  0  0  0  0  0  9  0  0
    8.9130   -8.8550    0.0000 H   0  0  0  0  0  0  0  0  0  0  0  0
    7.9472   -4.9017    0.0000 C   0  0  0  0  0  0  0  0  0 10  0  0
    5.9213   -5.4190    0.0000 H   0  0  0  0  0  0  0  0  0  0  0  0
   10.3986  -11.3236    0.0000 C   0  0  0  0  0  0  0  0  0  4  0  0
    8.4761  -12.2201    0.0000 H   0  0  0  0  0  0  0  0  0  0  0  0
    9.6701   -9.4740    0.0000 H   0  0  0  0  0  0  0  0  0  0  0  0
    9.3567   -5.4147    0.0000 C   0  0  0  0  0  0  0  0  0  6  0  0
   11.0268   -7.4050    0.0000 H   0  0  0  0  0  0  0  0  0  0  0  0
    7.6867   -3.4245    0.0000 H   0  0  0  0  0  0  0  0  0  0  0  0
   11.8082  -11.8366    0.0000 H   0  0  0  0  0  0  0  0  0  0  0  0
    9.8856  -12.7331    0.0000 H   0  0  0  0  0  0  0  0  0  0  0  0
   10.9117   -9.9140    0.0000 H   0  0  0  0  0  0  0  0  0  0  0  0
   10.5058   -4.4505    0.0000 H   0  0  0  0  0  0  0  0  0  0  0  0
    3.0000   -0.0000    0.0000 H   0  0  0  0  0  0  0  0  0  0  0  0
    1.5000    2.5981    0.0000 H   0  0  0  0  0  0  0  0  0  0  0  0
   -3.0000    0.0000    0.0000 H   0  0  0  0  0  0  0  0  0  0  0  0
   -1.5000   -2.5981    0.0000 H   0  0  0  0  0  0  0  0  0  0  0  0
   -3.0000    2.5981    0.0000 H   0  0  0  0  0  0  0  0  0  0  0  0
  1  2  1  0
  2  3  2  0
  3  4  1  0
  4  5  2  0
  5  6  1  0
  5  7  1  0
  7  8  2  0
  8  2  1  0
  9  1  1  0
  1 10  1  0
  1 11  1  0
 12  9  1  0
  9 13  1  0
  9 14  1  0
 15 12  1  0
 12 16  1  0
 17 15  1  0
 15 18  1  0
 15 19  1  0
 16 20  1  0
 16 21  1  0
 16 22  1  0
 23 17  1  0
 17 24  1  0
 17 25  1  0
 20 23  1  0
 20 26  1  0
 20 27  1  0
 28 23  1  0
 23 29  1  0
 30 28  1  0
 28 31  1  0
 32 30  2  0
 30 33  1  0
 31 34  2  0
 35 31  1  0
 33 36  1  0
 33 37  1  0
 33 38  1  0
 34 39  1  0
 34 40  1  0
 41 35  2  0
 35 42  1  0
 36 43  1  0
 36 44  1  0
 36 45  1  0
 39 46  2  0
 39 47  1  0
 46 41  1  0
 41 48  1  0
 43 49  1  0
 43 50  1  0
 43 51  1  0
 46 52  1  0
  3 53  1  0
  4 54  1  0
  7 55  1  0
  8 56  1  0
  6 57  1  0
M  END
>  <SMILES>  (5) 
CCCC(=O)N(c1ccccc1)C1CCN(CCc2ccc(O)cc2)CC1

>  <Molecular Weight>  (5) 
366.5

>  <Substrate_ID>  (5) 
MOL0010

>  <Substrate>  (5) 


>  <Substrate_SMILES>  (5) 
CCCC(=O)N(c1ccccc1)C1CCN(CCc2ccccc2)CC1

>  <Reaction>  (5) 
aromatic_hydroxylation_(para_to_carbon),aromatic hydroxylation

>  <Score>  (5) 
0.1603

>  <Reaction_Score>  (5) 
0.1983

>  <Bond_Score>  (5) 
0.1296

>  <Rank>  (5) 
3

>  <Subtype>  (5) 
2C8, 3A4

>  <Subtype_Scores>  (5) 
[2C8] SOM_score: 0.0879, Reaction_score: 0.1983, Score: 0.1321
[3A4] SOM_score: 0.1268, Reaction_score: 0.1983, Score: 0.1586


$$$$

     RDKit          2D

 57 59  0  0  0  0  0  0  0  0999 V2000
    0.7500   -1.2990    0.0000 C   0  0  0  0  0  0  0  0  0 24  0  0
    1.5000   -2.5981    0.0000 C   0  0  0  0  0  0  0  0  0 17  0  0
    0.2010   -3.3481    0.0000 O   0  0  0  0  0  0  0  0  0 27  0  0
    2.2500   -3.8971    0.0000 C   0  0  0  0  0  0  0  0  0 20  0  0
    1.5000   -0.0000    0.0000 C   0  0  0  0  0  0  0  0  0 11  0  0
   -0.7500   -1.2990    0.0000 C   0  0  0  0  0  0  0  0  0 12  0  0
    0.7500    1.2990    0.0000 C   0  0  0  0  0  0  0  0  0  7  0  0
    3.0000   -0.0000    0.0000 H   0  0  0  0  0  0  0  0  0  0  0  0
   -1.5000    0.0000    0.0000 C   0  0  0  0  0  0  0  0  0  8  0  0
   -1.5000   -2.5981    0.0000 H   0  0  0  0  0  0  0  0  0  0  0  0
   -0.7500    1.2990    0.0000 C   0  0  0  0  0  0  0  0  0  5  0  0
    1.5000    2.5981    0.0000 H   0  0  0  0  0  0  0  0  0  0  0  0
   -3.0000    0.0000    0.0000 H   0  0  0  0  0  0  0  0  0  0  0  0
   -1.5000    2.5981    0.0000 H   0  0  0  0  0  0  0  0  0  0  0  0
    2.7990   -1.8481    0.0000 H   0  0  0  0  0  0  0  0  0  0  0  0
    3.0000   -5.1962    0.0000 N   0  0  0  0  0  0  0  0  0  2  0  0
    3.4479   -2.9944    0.0000 H   0  0  0  0  0  0  0  0  0  0  0  0
    0.9510   -4.6471    0.0000 H   0  0  0  0  0  0  0  0  0  0  0  0
    2.2500   -6.4952    0.0000 C   0  0  0  0  0  0  0  0  0 21  0  0
    4.5000   -5.1962    0.0000 C   0  0  0  0  0  0  0  0  0 22  0  0
    3.0000   -7.7942    0.0000 C   0  0  0  0  0  0  0  0  0 18  0  0
    1.1009   -7.4594    0.0000 H   0  0  0  0  0  0  0  0  0  0  0  0
    0.9920   -5.6783    0.0000 H   0  0  0  0  0  0  0  0  0  0  0  0
    5.2500   -6.4952    0.0000 C   0  0  0  0  0  0  0  0  0 19  0  0
    4.4215   -3.6982    0.0000 H   0  0  0  0  0  0  0  0  0  0  0  0
    5.2103   -4.8342    0.0000 H   0  0  0  0  0  0  0  0  0  0  0  0
    4.5000   -7.7942    0.0000 C   0  0  0  0  0  0  0  0  0 26  0  0
    3.2605   -9.2714    0.0000 H   0  0  0  0  0  0  0  0  0  0  0  0
    1.5905   -8.3073    0.0000 H   0  0  0  0  0  0  0  0  0  0  0  0
    5.9641   -5.5122    0.0000 H   0  0  0  0  0  0  0  0  0  0  0  0
    6.2329   -6.9745    0.0000 H   0  0  0  0  0  0  0  0  0  0  0  0
    5.9095   -8.3073    0.0000 N   0  0  0  0  0  0  0  0  0  3  0  0
    4.2395   -9.2714    0.0000 H   0  0  0  0  0  0  0  0  0  0  0  0
    6.1700   -9.7845    0.0000 C   0  0  0  0  0  0  0  0  0 23  0  0
    7.0586   -7.3431    0.0000 C   0  0  0  0  0  0  0  0  0 25  0  0
    5.0209  -10.7487    0.0000 O   0  0  0  0  0  0  0  0  0  1  0  0
    7.5796  -10.2975    0.0000 C   0  0  0  0  0  0  0  0  0 16  0  0
    8.4681   -7.8561    0.0000 C   0  0  0  0  0  0  0  0  0 13  0  0
    6.7981   -5.8659    0.0000 C   0  0  0  0  0  0  0  0  0 14  0  0
    8.9891  -10.8105    0.0000 C   0  0  0  0  0  0  0  0  0 15  0  0
    7.0665  -11.7070    0.0000 H   0  0  0  0  0  0  0  0  0  0  0  0
    8.0760   -9.3232    0.0000 H   0  0  0  0  0  0  0  0  0  0  0  0
    9.6172   -6.8919    0.0000 C   0  0  0  0  0  0  0  0  0  9  0  0
    8.9130   -8.8550    0.0000 H   0  0  0  0  0  0  0  0  0  0  0  0
    7.9472   -4.9017    0.0000 C   0  0  0  0  0  0  0  0  0 10  0  0
    5.9213   -5.4190    0.0000 H   0  0  0  0  0  0  0  0  0  0  0  0
   10.3986  -11.3236    0.0000 C   0  0  0  0  0  0  0  0  0  4  0  0
    8.4761  -12.2201    0.0000 H   0  0  0  0  0  0  0  0  0  0  0  0
    9.6701   -9.4740    0.0000 H   0  0  0  0  0  0  0  0  0  0  0  0
    9.3567   -5.4147    0.0000 C   0  0  0  0  0  0  0  0  0  6  0  0
   11.0268   -7.4050    0.0000 H   0  0  0  0  0  0  0  0  0  0  0  0
    7.6867   -3.4245    0.0000 H   0  0  0  0  0  0  0  0  0  0  0  0
   11.8082  -11.8366    0.0000 H   0  0  0  0  0  0  0  0  0  0  0  0
    9.8856  -12.7331    0.0000 H   0  0  0  0  0  0  0  0  0  0  0  0
   10.9117   -9.9140    0.0000 H   0  0  0  0  0  0  0  0  0  0  0  0
   10.5058   -4.4505    0.0000 H   0  0  0  0  0  0  0  0  0  0  0  0
    0.0181   -4.8369    0.0000 H   0  0  0  0  0  0  0  0  0  0  0  0
  1  2  1  0
  2  3  1  0
  2  4  1  0
  1  5  2  0
  6  1  1  0
  5  7  1  0
  5  8  1  0
  9  6  2  0
  6 10  1  0
  7 11  2  0
  7 12  1  0
 11  9  1  0
  9 13  1  0
 11 14  1  0
  2 15  1  0
 16  4  1  0
  4 17  1  0
  4 18  1  0
 19 16  1  0
 16 20  1  0
 21 19  1  0
 19 22  1  0
 19 23  1  0
 20 24  1  0
 20 25  1  0
 20 26  1  0
 27 21  1  0
 21 28  1  0
 21 29  1  0
 24 27  1  0
 24 30  1  0
 24 31  1  0
 32 27  1  0
 27 33  1  0
 34 32  1  0
 32 35  1  0
 36 34  2  0
 34 37  1  0
 35 38  2  0
 39 35  1  0
 37 40  1  0
 37 41  1  0
 37 42  1  0
 38 43  1  0
 38 44  1  0
 45 39  2  0
 39 46  1  0
 40 47  1  0
 40 48  1  0
 40 49  1  0
 43 50  2  0
 43 51  1  0
 50 45  1  0
 45 52  1  0
 47 53  1  0
 47 54  1  0
 47 55  1  0
 50 56  1  0
  3 57  1  0
M  END
>  <SMILES>  (6) 
CCCC(=O)N(c1ccccc1)C1CCN(CC(O)c2ccccc2)CC1

>  <Molecular Weight>  (6) 
366.5

>  <Substrate_ID>  (6) 
MOL0010

>  <Substrate>  (6) 


>  <Substrate_SMILES>  (6) 
CCCC(=O)N(c1ccccc1)C1CCN(CCc2ccccc2)CC1

>  <Reaction>  (6) 
benzylic_hydroxylation_(c-CH2-CR),aliphatic hydroxylation

>  <Score>  (6) 
0.1352

>  <Reaction_Score>  (6) 
0.129

>  <Bond_Score>  (6) 
0.1417

>  <Rank>  (6) 
4

>  <Subtype>  (6) 
3A4

>  <Subtype_Scores>  (6) 
[3A4] SOM_score: 0.1417, Reaction_score: 0.1290, Score: 0.1352


$$$$

     RDKit          2D

 57 59  0  0  0  0  0  0  0  0999 V2000
   -0.7500   -1.2990    0.0000 C   0  0  0  0  0  0  0  0  0 16  0  0
   -2.2500   -1.2990    0.0000 C   0  0  0  0  0  0  0  0  0 15  0  0
   -3.7500   -1.2990    0.0000 C   0  0  0  0  0  0  0  0  0  4  0  0
   -5.2500   -1.2990    0.0000 O   0  0  0  0  0  0  0  0  0 27  0  0
    0.7500   -1.2990    0.0000 C   0  0  0  0  0  0  0  0  0 23  0  0
   -0.7500    0.2010    0.0000 H   0  0  0  0  0  0  0  0  0  0  0  0
   -0.8833   -2.3844    0.0000 H   0  0  0  0  0  0  0  0  0  0  0  0
    1.5000   -0.0000    0.0000 O   0  0  0  0  0  0  0  0  0  1  0  0
    1.5000   -2.5981    0.0000 N   0  0  0  0  0  0  0  0  0  3  0  0
    0.7500   -3.8971    0.0000 C   0  0  0  0  0  0  0  0  0 25  0  0
    3.0000   -2.5981    0.0000 C   0  0  0  0  0  0  0  0  0 26  0  0
   -0.7500   -3.8971    0.0000 C   0  0  0  0  0  0  0  0  0 13  0  0
    1.5000   -5.1962    0.0000 C   0  0  0  0  0  0  0  0  0 14  0  0
    2.7395   -4.0753    0.0000 C   0  0  0  0  0  0  0  0  0 18  0  0
    4.4095   -2.0850    0.0000 C   0  0  0  0  0  0  0  0  0 19  0  0
    2.7395   -1.1209    0.0000 H   0  0  0  0  0  0  0  0  0  0  0  0
   -1.5000   -5.1962    0.0000 C   0  0  0  0  0  0  0  0  0  9  0  0
   -1.5097   -3.1106    0.0000 H   0  0  0  0  0  0  0  0  0  0  0  0
    0.7500   -6.4952    0.0000 C   0  0  0  0  0  0  0  0  0 10  0  0
    2.2912   -5.2933    0.0000 H   0  0  0  0  0  0  0  0  0  0  0  0
    3.8886   -5.0395    0.0000 C   0  0  0  0  0  0  0  0  0 21  0  0
    2.5198   -4.8416    0.0000 H   0  0  0  0  0  0  0  0  0  0  0  0
    1.2477   -3.9186    0.0000 H   0  0  0  0  0  0  0  0  0  0  0  0
    5.5586   -3.0492    0.0000 C   0  0  0  0  0  0  0  0  0 22  0  0
    3.6595   -0.7860    0.0000 H   0  0  0  0  0  0  0  0  0  0  0  0
    5.5586   -1.1209    0.0000 H   0  0  0  0  0  0  0  0  0  0  0  0
   -0.7500   -6.4952    0.0000 C   0  0  0  0  0  0  0  0  0  6  0  0
   -3.0000   -5.1962    0.0000 H   0  0  0  0  0  0  0  0  0  0  0  0
    1.5000   -7.7942    0.0000 H   0  0  0  0  0  0  0  0  0  0  0  0
    5.2981   -4.5264    0.0000 N   0  0  0  0  0  0  0  0  0  2  0  0
    4.4747   -6.4202    0.0000 H   0  0  0  0  0  0  0  0  0  0  0  0
    2.8656   -6.1365    0.0000 H   0  0  0  0  0  0  0  0  0  0  0  0
    6.3086   -1.7502    0.0000 H   0  0  0  0  0  0  0  0  0  0  0  0
    7.0202   -3.3866    0.0000 H   0  0  0  0  0  0  0  0  0  0  0  0
   -1.5000   -7.7942    0.0000 H   0  0  0  0  0  0  0  0  0  0  0  0
    6.4472   -5.4906    0.0000 C   0  0  0  0  0  0  0  0  0 20  0  0
    7.5963   -6.4548    0.0000 C   0  0  0  0  0  0  0  0  0 17  0  0
    7.5443   -4.4677    0.0000 H   0  0  0  0  0  0  0  0  0  0  0  0
    5.6303   -6.7486    0.0000 H   0  0  0  0  0  0  0  0  0  0  0  0
    8.7453   -7.4190    0.0000 C   0  0  0  0  0  0  0  0  0 24  0  0
    6.6321   -7.6039    0.0000 H   0  0  0  0  0  0  0  0  0  0  0  0
    8.5604   -5.3057    0.0000 H   0  0  0  0  0  0  0  0  0  0  0  0
    8.4849   -8.8962    0.0000 C   0  0  0  0  0  0  0  0  0 11  0  0
   10.1549   -6.9060    0.0000 C   0  0  0  0  0  0  0  0  0 12  0  0
    9.6339   -9.8604    0.0000 C   0  0  0  0  0  0  0  0  0  7  0  0
    7.0753   -9.4092    0.0000 H   0  0  0  0  0  0  0  0  0  0  0  0
   11.3039   -7.8701    0.0000 C   0  0  0  0  0  0  0  0  0  8  0  0
   10.4153   -5.4287    0.0000 H   0  0  0  0  0  0  0  0  0  0  0  0
   11.0435   -9.3473    0.0000 C   0  0  0  0  0  0  0  0  0  5  0  0
    9.3735  -11.3376    0.0000 H   0  0  0  0  0  0  0  0  0  0  0  0
   12.7135   -7.3571    0.0000 H   0  0  0  0  0  0  0  0  0  0  0  0
   12.1925  -10.3115    0.0000 H   0  0  0  0  0  0  0  0  0  0  0  0
   -2.2500    0.2010    0.0000 H   0  0  0  0  0  0  0  0  0  0  0  0
   -2.4328   -2.7879    0.0000 H   0  0  0  0  0  0  0  0  0  0  0  0
   -3.7500    0.2010    0.0000 H   0  0  0  0  0  0  0  0  0  0  0  0
   -3.7500   -2.7990    0.0000 H   0  0  0  0  0  0  0  0  0  0  0  0
   -6.0000   -0.0000    0.0000 H   0  0  0  0  0  0  0  0  0  0  0  0
  1  2  1  0
  2  3  1  0
  3  4  1  0
  5  1  1  0
  1  6  1  0
  1  7  1  0
  8  5  2  0
  5  9  1  0
  9 10  1  0
  9 11  1  0
 10 12  2  0
 13 10  1  0
 11 14  1  0
 15 11  1  0
 11 16  1  0
 12 17  1  0
 12 18  1  0
 19 13  2  0
 13 20  1  0
 14 21  1  0
 14 22  1  0
 14 23  1  0
 24 15  1  0
 15 25  1  0
 15 26  1  0
 17 27  2  0
 17 28  1  0
 27 19  1  0
 19 29  1  0
 21 30  1  0
 21 31  1  0
 21 32  1  0
 30 24  1  0
 24 33  1  0
 24 34  1  0
 27 35  1  0
 30 36  1  0
 36 37  1  0
 36 38  1  0
 36 39  1  0
 37 40  1  0
 37 41  1  0
 37 42  1  0
 40 43  2  0
 44 40  1  0
 43 45  1  0
 43 46  1  0
 47 44  2  0
 44 48  1  0
 45 49  2  0
 45 50  1  0
 49 47  1  0
 47 51  1  0
 49 52  1  0
  2 53  1  0
  2 54  1  0
  3 55  1  0
  3 56  1  0
  4 57  1  0
M  END
>  <SMILES>  (7) 
O=C(CCCO)N(c1ccccc1)C1CCN(CCc2ccccc2)CC1

>  <Molecular Weight>  (7) 
366.5

>  <Substrate_ID>  (7) 
MOL0010

>  <Substrate>  (7) 


>  <Substrate_SMILES>  (7) 
CCCC(=O)N(c1ccccc1)C1CCN(CCc2ccccc2)CC1

>  <Reaction>  (7) 
aliphatic_hydroxylation_(primary_carbon_next_to_sec_carbon),aliphatic hydroxylation

>  <Score>  (7) 
0.1178

>  <Reaction_Score>  (7) 
0.1414

>  <Bond_Score>  (7) 
0.0981

>  <Rank>  (7) 
5

>  <Subtype>  (7) 
2C8

>  <Subtype_Scores>  (7) 
[2C8] SOM_score: 0.0780, Reaction_score: 0.1414, Score: 0.1050


$$$$

     RDKit          2D

 57 59  0  0  0  0  0  0  0  0999 V2000
    1.5000   -2.5981    0.0000 N   0  0  0  0  0  4  0  0  0  3  0  0
    0.2010   -3.3481    0.0000 O   0  0  0  0  0  1  0  0  0 27  0  0
    0.7500   -1.2990    0.0000 C   0  0  0  0  0  0  0  0  0 23  0  0
    2.2500   -3.8971    0.0000 C   0  0  0  0  0  0  0  0  0 25  0  0
    2.7990   -1.8481    0.0000 C   0  0  0  0  0  0  0  0  0 26  0  0
    3.7500   -3.8971    0.0000 C   0  0  0  0  0  0  0  0  0 13  0  0
    1.5000   -5.1962    0.0000 C   0  0  0  0  0  0  0  0  0 14  0  0
    3.3121   -3.2576    0.0000 C   0  0  0  0  0  0  0  0  0 18  0  0
    3.7632   -0.6990    0.0000 C   0  0  0  0  0  0  0  0  0 19  0  0
    2.1416   -0.4998    0.0000 H   0  0  0  0  0  0  0  0  0  0  0  0
    4.5000   -5.1962    0.0000 C   0  0  0  0  0  0  0  0  0  9  0  0
    4.5000   -2.5981    0.0000 H   0  0  0  0  0  0  0  0  0  0  0  0
    2.2500   -6.4952    0.0000 C   0  0  0  0  0  0  0  0  0 10  0  0
    0.0000   -5.1962    0.0000 H   0  0  0  0  0  0  0  0  0  0  0  0
    4.7893   -3.5181    0.0000 C   0  0  0  0  0  0  0  0  0 21  0  0
    3.3121   -4.7576    0.0000 H   0  0  0  0  0  0  0  0  0  0  0  0
    2.5838   -3.5819    0.0000 H   0  0  0  0  0  0  0  0  0  0  0  0
    5.2404   -0.9595    0.0000 C   0  0  0  0  0  0  0  0  0 22  0  0
    2.3824   -0.1130    0.0000 H   0  0  0  0  0  0  0  0  0  0  0  0
    4.4442    0.6375    0.0000 H   0  0  0  0  0  0  0  0  0  0  0  0
    3.7500   -6.4952    0.0000 C   0  0  0  0  0  0  0  0  0  6  0  0
    6.0000   -5.1962    0.0000 H   0  0  0  0  0  0  0  0  0  0  0  0
    1.5000   -7.7942    0.0000 H   0  0  0  0  0  0  0  0  0  0  0  0
    5.7535   -2.3690    0.0000 N   0  0  0  0  0  0  0  0  0  2  0  0
    5.9872   -4.4208    0.0000 H   0  0  0  0  0  0  0  0  0  0  0  0
    4.6326   -5.0099    0.0000 H   0  0  0  0  0  0  0  0  0  0  0  0
    5.2404    0.5405    0.0000 H   0  0  0  0  0  0  0  0  0  0  0  0
    6.6749   -0.5209    0.0000 H   0  0  0  0  0  0  0  0  0  0  0  0
    4.5000   -7.7942    0.0000 H   0  0  0  0  0  0  0  0  0  0  0  0
    7.2307   -2.6295    0.0000 C   0  0  0  0  0  0  0  0  0 20  0  0
    8.7079   -2.8900    0.0000 C   0  0  0  0  0  0  0  0  0 17  0  0
    7.6693   -1.1950    0.0000 H   0  0  0  0  0  0  0  0  0  0  0  0
    7.1522   -4.1274    0.0000 H   0  0  0  0  0  0  0  0  0  0  0  0
   10.1851   -3.1504    0.0000 C   0  0  0  0  0  0  0  0  0 24  0  0
    8.4474   -4.3672    0.0000 H   0  0  0  0  0  0  0  0  0  0  0  0
    8.9684   -1.4128    0.0000 H   0  0  0  0  0  0  0  0  0  0  0  0
   10.6981   -4.5600    0.0000 C   0  0  0  0  0  0  0  0  0 11  0  0
   11.1493   -2.0014    0.0000 C   0  0  0  0  0  0  0  0  0 12  0  0
   12.1753   -4.8204    0.0000 C   0  0  0  0  0  0  0  0  0  7  0  0
    9.7339   -5.7090    0.0000 H   0  0  0  0  0  0  0  0  0  0  0  0
   12.6265   -2.2618    0.0000 C   0  0  0  0  0  0  0  0  0  8  0  0
   10.6362   -0.5918    0.0000 H   0  0  0  0  0  0  0  0  0  0  0  0
   13.1395   -3.6714    0.0000 C   0  0  0  0  0  0  0  0  0  5  0  0
   12.6884   -6.2300    0.0000 H   0  0  0  0  0  0  0  0  0  0  0  0
   13.5907   -1.1128    0.0000 H   0  0  0  0  0  0  0  0  0  0  0  0
   14.6167   -3.9319    0.0000 H   0  0  0  0  0  0  0  0  0  0  0  0
   -0.7500   -1.2990    0.0000 O   0  0  0  0  0  0  0  0  0  1  0  0
    1.5000   -0.0000    0.0000 C   0  0  0  0  0  0  0  0  0 16  0  0
    2.2500    1.2990    0.0000 C   0  0  0  0  0  0  0  0  0 15  0  0
    0.2010    0.7500    0.0000 H   0  0  0  0  0  0  0  0  0  0  0  0
    2.6979   -0.9028    0.0000 H   0  0  0  0  0  0  0  0  0  0  0  0
    3.0000    2.5981    0.0000 C   0  0  0  0  0  0  0  0  0  4  0  0
    0.9510    2.0490    0.0000 H   0  0  0  0  0  0  0  0  0  0  0  0
    3.6308    0.7130    0.0000 H   0  0  0  0  0  0  0  0  0  0  0  0
    3.7500    3.8971    0.0000 H   0  0  0  0  0  0  0  0  0  0  0  0
    1.7010    3.3481    0.0000 H   0  0  0  0  0  0  0  0  0  0  0  0
    4.2990    1.8481    0.0000 H   0  0  0  0  0  0  0  0  0  0  0  0
  1  2  1  0
  1  3  1  0
  1  4  1  0
  1  5  1  0
  4  6  2  0
  7  4  1  0
  5  8  1  0
  9  5  1  0
  5 10  1  0
  6 11  1  0
  6 12  1  0
 13  7  2  0
  7 14  1  0
  8 15  1  0
  8 16  1  0
  8 17  1  0
 18  9  1  0
  9 19  1  0
  9 20  1  0
 11 21  2  0
 11 22  1  0
 21 13  1  0
 13 23  1  0
 15 24  1  0
 15 25  1  0
 15 26  1  0
 24 18  1  0
 18 27  1  0
 18 28  1  0
 21 29  1  0
 24 30  1  0
 30 31  1  0
 30 32  1  0
 30 33  1  0
 31 34  1  0
 31 35  1  0
 31 36  1  0
 34 37  2  0
 38 34  1  0
 37 39  1  0
 37 40  1  0
 41 38  2  0
 38 42  1  0
 39 43  2  0
 39 44  1  0
 43 41  1  0
 41 45  1  0
 43 46  1  0
 47  3  2  0
  3 48  1  0
 48 49  1  0
 48 50  1  0
 48 51  1  0
 49 52  1  0
 49 53  1  0
 49 54  1  0
 52 55  1  0
 52 56  1  0
 52 57  1  0
M  CHG  2   1   1   2  -1
M  END
>  <SMILES>  (8) 
CCCC(=O)[N+]([O-])(c1ccccc1)C1CCN(CCc2ccccc2)CC1

>  <Molecular Weight>  (8) 
366.5

>  <Substrate_ID>  (8) 
MOL0010

>  <Substrate>  (8) 


>  <Substrate_SMILES>  (8) 
CCCC(=O)N(c1ccccc1)C1CCN(CCc2ccccc2)CC1

>  <Reaction>  (8) 
N-oxidation

>  <Score>  (8) 
0.095

>  <Reaction_Score>  (8) 
0.0296

>  <Bond_Score>  (8) 
0.3052

>  <Rank>  (8) 
6

>  <Subtype>  (8) 
2C8, 3A4

>  <Subtype_Scores>  (8) 
[2C8] SOM_score: 0.0858, Reaction_score: 0.0296, Score: 0.0504
[3A4] SOM_score: 0.3052, Reaction_score: 0.0296, Score: 0.0950


$$$$
