
     RDKit          2D

 47 50  0  0  0  0  0  0  0  0999 V2000
    1.5000    0.0000    0.0000 C   0  0  0  0  0  0  0  0  0 29  0  0
    3.0000    0.0000    0.0000 O   0  0  0  0  0  0  0  0  0  9  0  0
    0.7500   -1.2990    0.0000 C   0  0  0  0  0  0  0  0  0 16  0  0
    0.7500    1.2990    0.0000 C   0  0  0  0  0  0  0  0  0 17  0  0
   -0.7500   -1.2990    0.0000 C   0  0  0  0  0  0  0  0  0 18  0  0
    1.5000   -2.5981    0.0000 H   0  0  0  0  0  0  0  0  0  0  0  0
   -0.7500    1.2990    0.0000 C   0  0  0  0  0  0  0  0  0 19  0  0
    1.5000    2.5981    0.0000 H   0  0  0  0  0  0  0  0  0  0  0  0
   -1.5000    0.0000    0.0000 C   0  0  0  0  0  0  0  0  0 30  0  0
   -1.5000   -2.5981    0.0000 H   0  0  0  0  0  0  0  0  0  0  0  0
   -1.5000    2.5981    0.0000 H   0  0  0  0  0  0  0  0  0  0  0  0
   -3.0000    0.0000    0.0000 C   0  0  0  0  0  0  0  0  0 31  0  0
   -3.7500    1.2990    0.0000 C   0  0  0  0  0  0  0  0  0 21  0  0
   -3.7500   -1.2990    0.0000 C   0  0  0  0  0  0  0  0  0 20  0  0
   -5.2500    1.2990    0.0000 N   0  0  0  0  0  0  0  0  0 12  0  0
   -3.0000    2.5981    0.0000 H   0  0  0  0  0  0  0  0  0  0  0  0
   -5.2500   -1.2990    0.0000 C   0  0  0  0  0  0  0  0  0 22  0  0
   -3.0000   -2.5981    0.0000 H   0  0  0  0  0  0  0  0  0  0  0  0
   -6.0000    0.0000    0.0000 C   0  0  0  0  0  0  0  0  0 32  0  0
   -6.0000   -2.5981    0.0000 H   0  0  0  0  0  0  0  0  0  0  0  0
   -7.5000    0.0000    0.0000 C   0  0  0  0  0  0  0  0  0 36  0  0
   -9.0000   -0.0000    0.0000 C   0  0  0  0  0  0  0  0  0 37  0  0
   -7.3920    0.8791    0.0000 F   0  0  0  0  0  0  0  0  0  6  0  0
   -7.5000   -1.5000    0.0000 F   0  0  0  0  0  0  0  0  0  7  0  0
  -10.5000   -0.0000    0.0000 C   0  0  0  0  0  0  0  0  0 34  0  0
   -9.0000   -1.5000    0.0000 O   0  0  0  0  0  0  0  0  0  8  0  0
   -9.0000    1.5000    0.0000 C   0  0  0  0  0  0  0  0  0 27  0  0
  -11.2500    1.2990    0.0000 C   0  0  0  0  0  0  0  0  0 24  0  0
  -11.2500   -1.2990    0.0000 C   0  0  0  0  0  0  0  0  0 33  0  0
   -9.8733   -2.1581    0.0000 H   0  0  0  0  0  0  0  0  0  0  0  0
   -9.0000    3.0000    0.0000 N   0  0  0  0  0  0  0  0  0 14  0  0
   -9.8594    1.7143    0.0000 H   0  0  0  0  0  0  0  0  0  0  0  0
   -8.1209    1.6080    0.0000 H   0  0  0  0  0  0  0  0  0  0  0  0
  -12.7500    1.2990    0.0000 C   0  0  0  0  0  0  0  0  0 15  0  0
  -10.8071    2.0661    0.0000 H   0  0  0  0  0  0  0  0  0  0  0  0
  -10.8228   -2.3056    0.0000 F   0  0  0  0  0  0  0  0  0  2  0  0
  -12.7500   -1.2990    0.0000 C   0  0  0  0  0  0  0  0  0 23  0  0
  -10.2135    3.8817    0.0000 N   0  0  0  0  0  0  0  0  0 13  0  0
   -7.7865    3.8817    0.0000 C   0  0  0  0  0  0  0  0  0 25  0  0
  -13.5000   -0.0000    0.0000 C   0  0  0  0  0  0  0  0  0 28  0  0
  -13.5000    2.5981    0.0000 H   0  0  0  0  0  0  0  0  0  0  0  0
  -13.5000   -2.5981    0.0000 H   0  0  0  0  0  0  0  0  0  0  0  0
   -9.7500    5.3083    0.0000 N   0  0  0  0  0  0  0  0  0 11  0  0
   -8.2500    5.3083    0.0000 N   0  0  0  0  0  0  0  0  0 10  0  0
   -6.3599    3.4182    0.0000 H   0  0  0  0  0  0  0  0  0  0  0  0
  -15.0000   -0.0000    0.0000 F   0  0  0  0  0  0  0  0  0  1  0  0
    3.7500   -1.2990    0.0000 H   0  0  0  0  0  0  0  0  0  0  0  0
  1  2  1  0
  3  1  2  0
  1  4  1  0
  5  3  1  0
  3  6  1  0
  4  7  2  0
  4  8  1  0
  9  5  2  0
  5 10  1  0
  7  9  1  0
  7 11  1  0
 12  9  1  0
 13 12  2  0
 12 14  1  0
 15 13  1  0
 13 16  1  0
 14 17  2  0
 14 18  1  0
 19 15  2  0
 17 19  1  0
 17 20  1  0
 21 19  1  0
 22 21  1  0
 21 23  1  0
 21 24  1  0
 25 22  1  0
 22 26  1  6
 22 27  1  0
 28 25  2  0
 25 29  1  0
 26 30  1  0
 27 31  1  0
 27 32  1  0
 27 33  1  0
 34 28  1  0
 28 35  1  0
 29 36  1  0
 29 37  2  0
 31 38  1  0
 39 31  1  0
 40 34  2  0
 34 41  1  0
 37 40  1  0
 37 42  1  0
 38 43  2  0
 44 39  2  0
 39 45  1  0
 46 40  1  0
 43 44  1  0
  2 47  1  0
M  END
>  <SMILES>  (1) 
Oc1ccc(-c2ccc(C(F)(F)C(O)(Cn3cnnn3)c3ccc(F)cc3F)nc2)cc1

>  <Molecular Weight>  (1) 
445.4

>  <Substrate_ID>  (1) 
MOL0025

>  <Substrate>  (1) 


>  <Substrate_SMILES>  (1) 
OC(Cn1cnnn1)(c1ccc(F)cc1F)C(F)(F)c1ccc(-c2ccc(OCC(F)(F)F)cc2)cn1

>  <Reaction>  (1) 
O-dealkylation_(aromatic)

>  <Score>  (1) 
0.5631

>  <Reaction_Score>  (1) 
0.5361

>  <Bond_Score>  (1) 
0.5916

>  <Rank>  (1) 
1

>  <Subtype>  (1) 
2C8, 2C9, 2C19, 3A4

>  <Subtype_Scores>  (1) 
[2C8] SOM_score: 0.3518, Reaction_score: 0.5361, Score: 0.4343
[2C9] SOM_score: 0.2294, Reaction_score: 0.5361, Score: 0.3507
[2C19] SOM_score: 0.2725, Reaction_score: 0.5361, Score: 0.3822
[3A4] SOM_score: 0.5916, Reaction_score: 0.5361, Score: 0.5631


$$$$
