
     RDKit          2D

 43 44  0  0  0  0  0  0  0  0999 V2000
   -1.4462    4.2990    0.0000 N   0  0  0  0  0  0  0  0  0  5  0  0
   -0.1471    3.5490    0.0000 C   0  0  0  0  0  0  0  0  0 18  0  0
   -1.4462    5.7990    0.0000 C   0  0  0  0  0  0  0  0  0 17  0  0
    1.1519    2.7990    0.0000 C   0  0  0  0  0  0  0  0  0 14  0  0
    0.6029    4.8481    0.0000 H   0  0  0  0  0  0  0  0  0  0  0  0
   -0.8971    2.2500    0.0000 H   0  0  0  0  0  0  0  0  0  0  0  0
   -1.4462    7.2990    0.0000 C   0  0  0  0  0  0  0  0  0 13  0  0
    0.0538    5.7990    0.0000 H   0  0  0  0  0  0  0  0  0  0  0  0
   -2.9462    5.7990    0.0000 H   0  0  0  0  0  0  0  0  0  0  0  0
    2.4510    2.0490    0.0000 C   0  0  0  0  0  0  0  0  0 15  0  0
    0.4019    1.5000    0.0000 H   0  0  0  0  0  0  0  0  0  0  0  0
    1.9019    4.0981    0.0000 H   0  0  0  0  0  0  0  0  0  0  0  0
   -1.4462    8.7990    0.0000 O   0  0  0  0  0  0  0  0  0  2  0  0
    0.0538    7.2990    0.0000 H   0  0  0  0  0  0  0  0  0  0  0  0
   -2.9462    7.2990    0.0000 H   0  0  0  0  0  0  0  0  0  0  0  0
    3.7500    1.2990    0.0000 C   0  0  0  0  0  0  0  0  0 23  0  0
    1.5482    0.8511    0.0000 H   0  0  0  0  0  0  0  0  0  0  0  0
    3.2010    3.3481    0.0000 H   0  0  0  0  0  0  0  0  0  0  0  0
   -2.7452    9.5490    0.0000 H   0  0  0  0  0  0  0  0  0  0  0  0
    3.0000    0.0000    0.0000 N   0  0  0  0  0  0  0  0  0  4  0  0
    5.0490    0.5490    0.0000 C   0  0  0  0  0  0  0  0  0  7  0  0
    4.5000    2.5981    0.0000 H   0  0  0  0  0  0  0  0  0  0  0  0
    3.7500   -1.2990    0.0000 C   0  0  0  0  0  0  0  0  0 20  0  0
    1.5112   -0.1828    0.0000 H   0  0  0  0  0  0  0  0  0  0  0  0
    5.7828    0.2376    0.0000 H   0  0  0  0  0  0  0  0  0  0  0  0
    5.7990    1.8481    0.0000 H   0  0  0  0  0  0  0  0  0  0  0  0
    4.7142   -0.6189    0.0000 H   0  0  0  0  0  0  0  0  0  0  0  0
    3.0000   -2.5981    0.0000 C   0  0  0  0  0  0  0  0  0 22  0  0
    5.2500   -1.2990    0.0000 C   0  0  0  0  0  0  0  0  0 10  0  0
    1.5000   -2.5981    0.0000 C   0  0  0  0  0  0  0  0  0 12  0  0
    3.7500   -3.8971    0.0000 C   0  0  0  0  0  0  0  0  0 21  0  0
    6.0000   -2.5981    0.0000 C   0  0  0  0  0  0  0  0  0  8  0  0
    5.7298   -0.6624    0.0000 H   0  0  0  0  0  0  0  0  0  0  0  0
    0.7500   -3.8971    0.0000 C   0  0  0  0  0  0  0  0  0  9  0  0
    0.7500   -1.2990    0.0000 H   0  0  0  0  0  0  0  0  0  0  0  0
    5.2500   -3.8971    0.0000 N   0  0  0  0  0  0  0  0  0  3  0  0
    3.0000   -5.1962    0.0000 C   0  0  0  0  0  0  0  0  0 11  0  0
    7.5000   -2.5981    0.0000 H   0  0  0  0  0  0  0  0  0  0  0  0
    1.5000   -5.1962    0.0000 C   0  0  0  0  0  0  0  0  0 19  0  0
   -0.7500   -3.8971    0.0000 H   0  0  0  0  0  0  0  0  0  0  0  0
    3.7500   -6.4952    0.0000 H   0  0  0  0  0  0  0  0  0  0  0  0
    0.7500   -6.4952    0.0000 Cl  0  0  0  0  0  0  0  0  0  1  0  0
   -2.7452    3.5490    0.0000 H   0  0  0  0  0  0  0  0  0  0  0  0
  2  1  1  0
  1  3  1  0
  4  2  1  0
  2  5  1  0
  2  6  1  0
  3  7  1  0
  3  8  1  0
  3  9  1  0
 10  4  1  0
  4 11  1  0
  4 12  1  0
  7 13  1  0
  7 14  1  0
  7 15  1  0
 16 10  1  0
 10 17  1  0
 10 18  1  0
 13 19  1  0
 20 16  1  0
 16 21  1  0
 16 22  1  6
 23 20  1  0
 20 24  1  0
 21 25  1  0
 21 26  1  0
 21 27  1  0
 28 23  2  0
 23 29  1  0
 30 28  1  0
 31 28  1  0
 29 32  2  0
 29 33  1  0
 34 30  2  0
 30 35  1  0
 36 31  2  0
 31 37  1  0
 32 36  1  0
 32 38  1  0
 39 34  1  0
 34 40  1  0
 37 39  2  0
 37 41  1  0
 42 39  1  0
  1 43  1  0
M  END
>  <SMILES>  (1) 
CC(CCCNCCO)Nc1ccnc2cc(Cl)ccc12

>  <Molecular Weight>  (1) 
307.8

>  <Substrate_ID>  (1) 
MOL0037

>  <Substrate>  (1) 


>  <Substrate_SMILES>  (1) 
CCN(CCO)CCCC(C)Nc1ccnc2cc(Cl)ccc12

>  <Reaction>  (1) 
N-dealkylation_(tertiaryN-CH2-alkyl)

>  <Score>  (1) 
0.8857

>  <Reaction_Score>  (1) 
0.9126

>  <Bond_Score>  (1) 
0.8597

>  <Rank>  (1) 
1

>  <Subtype>  (1) 
1A2, 2B6, 2C8, 2C9, 2C19, 2D6, 3A4

>  <Subtype_Scores>  (1) 
[1A2] SOM_score: 0.7493, Reaction_score: 0.9126, Score: 0.8270
[2B6] SOM_score: 0.5783, Reaction_score: 0.9126, Score: 0.7265
[2C8] SOM_score: 0.6668, Reaction_score: 0.9126, Score: 0.7801
[2C9] SOM_score: 0.4732, Reaction_score: 0.9126, Score: 0.6572
[2C19] SOM_score: 0.7452, Reaction_score: 0.9126, Score: 0.8247
[2D6] SOM_score: 0.7327, Reaction_score: 0.9126, Score: 0.8177
[3A4] SOM_score: 0.8597, Reaction_score: 0.9126, Score: 0.8857


$$$$

     RDKit          2D

 42 43  0  0  0  0  0  0  0  0999 V2000
   -1.4462    4.2990    0.0000 N   0  0  0  0  0  0  0  0  0  5  0  0
   -0.1471    3.5490    0.0000 C   0  0  0  0  0  0  0  0  0 18  0  0
   -1.4462    5.7990    0.0000 C   0  0  0  0  0  0  0  0  0 16  0  0
    1.1519    2.7990    0.0000 C   0  0  0  0  0  0  0  0  0 14  0  0
    0.6029    4.8481    0.0000 H   0  0  0  0  0  0  0  0  0  0  0  0
   -0.8971    2.2500    0.0000 H   0  0  0  0  0  0  0  0  0  0  0  0
   -1.4462    7.2990    0.0000 C   0  0  0  0  0  0  0  0  0  6  0  0
    0.0538    5.7990    0.0000 H   0  0  0  0  0  0  0  0  0  0  0  0
   -2.9462    5.7990    0.0000 H   0  0  0  0  0  0  0  0  0  0  0  0
    2.4510    2.0490    0.0000 C   0  0  0  0  0  0  0  0  0 15  0  0
    0.4019    1.5000    0.0000 H   0  0  0  0  0  0  0  0  0  0  0  0
    1.9019    4.0981    0.0000 H   0  0  0  0  0  0  0  0  0  0  0  0
   -1.4462    8.7990    0.0000 H   0  0  0  0  0  0  0  0  0  0  0  0
    0.0538    7.2990    0.0000 H   0  0  0  0  0  0  0  0  0  0  0  0
   -2.9462    7.2990    0.0000 H   0  0  0  0  0  0  0  0  0  0  0  0
    3.7500    1.2990    0.0000 C   0  0  0  0  0  0  0  0  0 23  0  0
    1.5482    0.8511    0.0000 H   0  0  0  0  0  0  0  0  0  0  0  0
    3.2010    3.3481    0.0000 H   0  0  0  0  0  0  0  0  0  0  0  0
    3.0000    0.0000    0.0000 N   0  0  0  0  0  0  0  0  0  4  0  0
    5.0490    0.5490    0.0000 C   0  0  0  0  0  0  0  0  0  7  0  0
    4.5000    2.5981    0.0000 H   0  0  0  0  0  0  0  0  0  0  0  0
    3.7500   -1.2990    0.0000 C   0  0  0  0  0  0  0  0  0 20  0  0
    1.5112   -0.1828    0.0000 H   0  0  0  0  0  0  0  0  0  0  0  0
    5.7828    0.2376    0.0000 H   0  0  0  0  0  0  0  0  0  0  0  0
    5.7990    1.8481    0.0000 H   0  0  0  0  0  0  0  0  0  0  0  0
    4.7142   -0.6189    0.0000 H   0  0  0  0  0  0  0  0  0  0  0  0
    3.0000   -2.5981    0.0000 C   0  0  0  0  0  0  0  0  0 22  0  0
    5.2500   -1.2990    0.0000 C   0  0  0  0  0  0  0  0  0 10  0  0
    1.5000   -2.5981    0.0000 C   0  0  0  0  0  0  0  0  0 12  0  0
    3.7500   -3.8971    0.0000 C   0  0  0  0  0  0  0  0  0 21  0  0
    6.0000   -2.5981    0.0000 C   0  0  0  0  0  0  0  0  0  8  0  0
    5.7298   -0.6624    0.0000 H   0  0  0  0  0  0  0  0  0  0  0  0
    0.7500   -3.8971    0.0000 C   0  0  0  0  0  0  0  0  0  9  0  0
    0.7500   -1.2990    0.0000 H   0  0  0  0  0  0  0  0  0  0  0  0
    5.2500   -3.8971    0.0000 N   0  0  0  0  0  0  0  0  0  3  0  0
    3.0000   -5.1962    0.0000 C   0  0  0  0  0  0  0  0  0 11  0  0
    7.5000   -2.5981    0.0000 H   0  0  0  0  0  0  0  0  0  0  0  0
    1.5000   -5.1962    0.0000 C   0  0  0  0  0  0  0  0  0 19  0  0
   -0.7500   -3.8971    0.0000 H   0  0  0  0  0  0  0  0  0  0  0  0
    3.7500   -6.4952    0.0000 H   0  0  0  0  0  0  0  0  0  0  0  0
    0.7500   -6.4952    0.0000 Cl  0  0  0  0  0  0  0  0  0  1  0  0
   -2.7452    3.5490    0.0000 H   0  0  0  0  0  0  0  0  0  0  0  0
  2  1  1  0
  1  3  1  0
  4  2  1  0
  2  5  1  0
  2  6  1  0
  3  7  1  0
  3  8  1  0
  3  9  1  0
 10  4  1  0
  4 11  1  0
  4 12  1  0
  7 13  1  0
  7 14  1  0
  7 15  1  0
 16 10  1  0
 10 17  1  0
 10 18  1  0
 19 16  1  0
 16 20  1  0
 16 21  1  6
 22 19  1  0
 19 23  1  0
 20 24  1  0
 20 25  1  0
 20 26  1  0
 27 22  2  0
 22 28  1  0
 29 27  1  0
 30 27  1  0
 28 31  2  0
 28 32  1  0
 33 29  2  0
 29 34  1  0
 35 30  2  0
 30 36  1  0
 31 35  1  0
 31 37  1  0
 38 33  1  0
 33 39  1  0
 36 38  2  0
 36 40  1  0
 41 38  1  0
  1 42  1  0
M  END
>  <SMILES>  (2) 
CCNCCCC(C)Nc1ccnc2cc(Cl)ccc12

>  <Molecular Weight>  (2) 
291.8

>  <Substrate_ID>  (2) 
MOL0037

>  <Substrate>  (2) 


>  <Substrate_SMILES>  (2) 
CCN(CCO)CCCC(C)Nc1ccnc2cc(Cl)ccc12

>  <Reaction>  (2) 
N-dealkylation_(tertiaryN-CH2-alkyl)

>  <Score>  (2) 
0.2872

>  <Reaction_Score>  (2) 
0.2827

>  <Bond_Score>  (2) 
0.2918

>  <Rank>  (2) 
2

>  <Subtype>  (2) 
2C8, 3A4

>  <Subtype_Scores>  (2) 
[2C8] SOM_score: 0.1310, Reaction_score: 0.2827, Score: 0.1924
[3A4] SOM_score: 0.2918, Reaction_score: 0.2827, Score: 0.2872


$$$$

     RDKit          2D

 17 16  0  0  0  0  0  0  0  0999 V2000
   -1.5000    0.0000    0.0000 N   0  0  0  0  0  0  0  0  0  5  0  0
    0.0000    0.0000    0.0000 C   0  0  0  0  0  0  0  0  0 16  0  0
   -2.2500   -1.2990    0.0000 C   0  0  0  0  0  0  0  0  0 17  0  0
    1.5000    0.0000    0.0000 C   0  0  0  0  0  0  0  0  0  6  0  0
    0.0000    1.5000    0.0000 H   0  0  0  0  0  0  0  0  0  0  0  0
   -0.0000   -1.5000    0.0000 H   0  0  0  0  0  0  0  0  0  0  0  0
   -3.0000   -2.5981    0.0000 C   0  0  0  0  0  0  0  0  0 13  0  0
   -0.9510   -2.0490    0.0000 H   0  0  0  0  0  0  0  0  0  0  0  0
   -3.5490   -0.5490    0.0000 H   0  0  0  0  0  0  0  0  0  0  0  0
    3.0000    0.0000    0.0000 H   0  0  0  0  0  0  0  0  0  0  0  0
    1.5000   -1.5000    0.0000 H   0  0  0  0  0  0  0  0  0  0  0  0
    1.5000    1.5000    0.0000 H   0  0  0  0  0  0  0  0  0  0  0  0
   -3.7500   -3.8971    0.0000 O   0  0  0  0  0  0  0  0  0  2  0  0
   -1.7010   -3.3481    0.0000 H   0  0  0  0  0  0  0  0  0  0  0  0
   -4.2990   -1.8481    0.0000 H   0  0  0  0  0  0  0  0  0  0  0  0
   -5.2500   -3.8971    0.0000 H   0  0  0  0  0  0  0  0  0  0  0  0
   -2.2500    1.2990    0.0000 H   0  0  0  0  0  0  0  0  0  0  0  0
  1  2  1  0
  1  3  1  0
  2  4  1  0
  2  5  1  0
  2  6  1  0
  3  7  1  0
  3  8  1  0
  3  9  1  0
  4 10  1  0
  4 11  1  0
  4 12  1  0
  7 13  1  0
  7 14  1  0
  7 15  1  0
 13 16  1  0
  1 17  1  0
M  END
>  <SMILES>  (3) 
CCNCCO

>  <Molecular Weight>  (3) 
89.1

>  <Substrate_ID>  (3) 
MOL0037

>  <Substrate>  (3) 


>  <Substrate_SMILES>  (3) 
CCN(CCO)CCCC(C)Nc1ccnc2cc(Cl)ccc12

>  <Reaction>  (3) 
N-dealkylation_(tertiaryN-CH2-alkyl)

>  <Score>  (3) 
0.2323

>  <Reaction_Score>  (3) 
0.2286

>  <Bond_Score>  (3) 
0.2361

>  <Rank>  (3) 
3

>  <Subtype>  (3) 
2C8, 3A4

>  <Subtype_Scores>  (3) 
[2C8] SOM_score: 0.1022, Reaction_score: 0.2286, Score: 0.1528
[3A4] SOM_score: 0.2361, Reaction_score: 0.2286, Score: 0.2323


$$$$

     RDKit          2D

 35 36  0  0  0  0  0  0  0  0999 V2000
    8.9462   -1.7010    0.0000 O   0  0  0  0  0  0  0  0  0 24  0  0
    7.6471   -0.9510    0.0000 C   0  0  0  0  0  0  0  0  0 18  0  0
    6.3481   -0.2010    0.0000 C   0  0  0  0  0  0  0  0  0 14  0  0
    8.3971    0.3481    0.0000 H   0  0  0  0  0  0  0  0  0  0  0  0
    6.8971   -2.2500    0.0000 H   0  0  0  0  0  0  0  0  0  0  0  0
    5.0490    0.5490    0.0000 C   0  0  0  0  0  0  0  0  0 15  0  0
    5.5981   -1.5000    0.0000 H   0  0  0  0  0  0  0  0  0  0  0  0
    7.0981    1.0981    0.0000 H   0  0  0  0  0  0  0  0  0  0  0  0
    3.7500    1.2990    0.0000 C   0  0  0  0  0  0  0  0  0 23  0  0
    4.4630   -0.8317    0.0000 H   0  0  0  0  0  0  0  0  0  0  0  0
    5.7990    1.8481    0.0000 H   0  0  0  0  0  0  0  0  0  0  0  0
    3.0000    0.0000    0.0000 N   0  0  0  0  0  0  0  0  0  4  0  0
    2.4510    2.0490    0.0000 C   0  0  0  0  0  0  0  0  0  7  0  0
    4.5000    2.5981    0.0000 H   0  0  0  0  0  0  0  0  0  0  0  0
    1.5000    0.0000    0.0000 C   0  0  0  0  0  0  0  0  0 20  0  0
    3.5861   -1.3808    0.0000 H   0  0  0  0  0  0  0  0  0  0  0  0
    1.8143    2.5288    0.0000 H   0  0  0  0  0  0  0  0  0  0  0  0
    3.2010    3.3481    0.0000 H   0  0  0  0  0  0  0  0  0  0  0  0
    1.6069    1.1751    0.0000 H   0  0  0  0  0  0  0  0  0  0  0  0
    0.7500   -1.2990    0.0000 C   0  0  0  0  0  0  0  0  0 22  0  0
    0.7500    1.2990    0.0000 C   0  0  0  0  0  0  0  0  0 10  0  0
    1.5000   -2.5981    0.0000 C   0  0  0  0  0  0  0  0  0 12  0  0
   -0.7500   -1.2990    0.0000 C   0  0  0  0  0  0  0  0  0 21  0  0
   -0.7500    1.2990    0.0000 C   0  0  0  0  0  0  0  0  0  8  0  0
    1.0615    2.0328    0.0000 H   0  0  0  0  0  0  0  0  0  0  0  0
    0.7500   -3.8971    0.0000 C   0  0  0  0  0  0  0  0  0  9  0  0
    3.0000   -2.5981    0.0000 H   0  0  0  0  0  0  0  0  0  0  0  0
   -1.5000    0.0000    0.0000 N   0  0  0  0  0  0  0  0  0  3  0  0
   -1.5000   -2.5981    0.0000 C   0  0  0  0  0  0  0  0  0 11  0  0
   -1.5000    2.5981    0.0000 H   0  0  0  0  0  0  0  0  0  0  0  0
   -0.7500   -3.8971    0.0000 C   0  0  0  0  0  0  0  0  0 19  0  0
    1.5000   -5.1962    0.0000 H   0  0  0  0  0  0  0  0  0  0  0  0
   -3.0000   -2.5981    0.0000 H   0  0  0  0  0  0  0  0  0  0  0  0
   -1.5000   -5.1962    0.0000 Cl  0  0  0  0  0  0  0  0  0  1  0  0
   10.2452   -0.9510    0.0000 H   0  0  0  0  0  0  0  0  0  0  0  0
  1  2  1  0
  3  2  1  0
  2  4  1  0
  2  5  1  0
  6  3  1  0
  3  7  1  0
  3  8  1  0
  9  6  1  0
  6 10  1  0
  6 11  1  0
 12  9  1  0
  9 13  1  0
  9 14  1  1
 15 12  1  0
 12 16  1  0
 13 17  1  0
 13 18  1  0
 13 19  1  0
 20 15  2  0
 15 21  1  0
 22 20  1  0
 23 20  1  0
 21 24  2  0
 21 25  1  0
 26 22  2  0
 22 27  1  0
 28 23  2  0
 23 29  1  0
 24 28  1  0
 24 30  1  0
 31 26  1  0
 26 32  1  0
 29 31  2  0
 29 33  1  0
 34 31  1  0
  1 35  1  0
M  END
>  <SMILES>  (4) 
CC(CCCO)Nc1ccnc2cc(Cl)ccc12

>  <Molecular Weight>  (4) 
264.8

>  <Substrate_ID>  (4) 
MOL0037

>  <Substrate>  (4) 


>  <Substrate_SMILES>  (4) 
CCN(CCO)CCCC(C)Nc1ccnc2cc(Cl)ccc12

>  <Reaction>  (4) 
N-dealkylation_(tertiaryN-CH2-alkyl)

>  <Score>  (4) 
0.2323

>  <Reaction_Score>  (4) 
0.2286

>  <Bond_Score>  (4) 
0.2361

>  <Rank>  (4) 
3

>  <Subtype>  (4) 
2C8, 3A4

>  <Subtype_Scores>  (4) 
[2C8] SOM_score: 0.1022, Reaction_score: 0.2286, Score: 0.1528
[3A4] SOM_score: 0.2361, Reaction_score: 0.2286, Score: 0.2323


$$$$

     RDKit          2D

 50 51  0  0  0  0  0  0  0  0999 V2000
   -0.1471    3.5490    0.0000 C   0  0  0  0  0  0  0  0  0 18  0  0
   -1.4462    4.2990    0.0000 N   0  0  0  0  0  4  0  0  0  5  0  0
   -2.7452    5.0490    0.0000 C   0  0  0  0  0  0  0  0  0 16  0  0
   -0.6962    5.5981    0.0000 C   0  0  0  0  0  0  0  0  0 17  0  0
   -2.1962    3.0000    0.0000 O   0  0  0  0  0  1  0  0  0 24  0  0
    1.1519    2.7990    0.0000 C   0  0  0  0  0  0  0  0  0 14  0  0
    0.7556    4.7470    0.0000 H   0  0  0  0  0  0  0  0  0  0  0  0
   -0.8971    2.2500    0.0000 H   0  0  0  0  0  0  0  0  0  0  0  0
    2.4510    2.0490    0.0000 C   0  0  0  0  0  0  0  0  0 15  0  0
    0.4019    1.5000    0.0000 H   0  0  0  0  0  0  0  0  0  0  0  0
    1.9019    4.0981    0.0000 H   0  0  0  0  0  0  0  0  0  0  0  0
    3.7500    1.2990    0.0000 C   0  0  0  0  0  0  0  0  0 23  0  0
    1.5482    0.8511    0.0000 H   0  0  0  0  0  0  0  0  0  0  0  0
    3.2010    3.3481    0.0000 H   0  0  0  0  0  0  0  0  0  0  0  0
    3.0000    0.0000    0.0000 N   0  0  0  0  0  0  0  0  0  4  0  0
    5.0490    0.5490    0.0000 C   0  0  0  0  0  0  0  0  0  7  0  0
    4.5000    2.5981    0.0000 H   0  0  0  0  0  0  0  0  0  0  0  0
    3.7500   -1.2990    0.0000 C   0  0  0  0  0  0  0  0  0 20  0  0
    1.5112   -0.1828    0.0000 H   0  0  0  0  0  0  0  0  0  0  0  0
    5.7828    0.2376    0.0000 H   0  0  0  0  0  0  0  0  0  0  0  0
    5.7990    1.8481    0.0000 H   0  0  0  0  0  0  0  0  0  0  0  0
    4.7142   -0.6189    0.0000 H   0  0  0  0  0  0  0  0  0  0  0  0
    3.0000   -2.5981    0.0000 C   0  0  0  0  0  0  0  0  0 22  0  0
    5.2500   -1.2990    0.0000 C   0  0  0  0  0  0  0  0  0 10  0  0
    1.5000   -2.5981    0.0000 C   0  0  0  0  0  0  0  0  0 12  0  0
    3.7500   -3.8971    0.0000 C   0  0  0  0  0  0  0  0  0 21  0  0
    6.0000   -2.5981    0.0000 C   0  0  0  0  0  0  0  0  0  8  0  0
    5.7298   -0.6624    0.0000 H   0  0  0  0  0  0  0  0  0  0  0  0
    0.7500   -3.8971    0.0000 C   0  0  0  0  0  0  0  0  0  9  0  0
    0.7500   -1.2990    0.0000 H   0  0  0  0  0  0  0  0  0  0  0  0
    5.2500   -3.8971    0.0000 N   0  0  0  0  0  0  0  0  0  3  0  0
    3.0000   -5.1962    0.0000 C   0  0  0  0  0  0  0  0  0 11  0  0
    7.5000   -2.5981    0.0000 H   0  0  0  0  0  0  0  0  0  0  0  0
    1.5000   -5.1962    0.0000 C   0  0  0  0  0  0  0  0  0 19  0  0
   -0.7500   -3.8971    0.0000 H   0  0  0  0  0  0  0  0  0  0  0  0
    3.7500   -6.4952    0.0000 H   0  0  0  0  0  0  0  0  0  0  0  0
    0.7500   -6.4952    0.0000 Cl  0  0  0  0  0  0  0  0  0  1  0  0
   -4.0442    5.7990    0.0000 C   0  0  0  0  0  0  0  0  0  6  0  0
   -3.4952    3.7500    0.0000 H   0  0  0  0  0  0  0  0  0  0  0  0
   -2.1591    6.4298    0.0000 H   0  0  0  0  0  0  0  0  0  0  0  0
   -5.3433    6.5490    0.0000 H   0  0  0  0  0  0  0  0  0  0  0  0
   -4.7942    4.5000    0.0000 H   0  0  0  0  0  0  0  0  0  0  0  0
   -3.2942    7.0981    0.0000 H   0  0  0  0  0  0  0  0  0  0  0  0
    0.0538    6.8971    0.0000 C   0  0  0  0  0  0  0  0  0 13  0  0
    0.6846    5.0120    0.0000 H   0  0  0  0  0  0  0  0  0  0  0  0
   -1.8941    6.5008    0.0000 H   0  0  0  0  0  0  0  0  0  0  0  0
    0.8038    8.1962    0.0000 O   0  0  0  0  0  0  0  0  0  2  0  0
   -1.2452    7.6471    0.0000 H   0  0  0  0  0  0  0  0  0  0  0  0
    1.3529    6.1471    0.0000 H   0  0  0  0  0  0  0  0  0  0  0  0
    2.3038    8.1962    0.0000 H   0  0  0  0  0  0  0  0  0  0  0  0
  1  2  1  0
  2  3  1  0
  2  4  1  0
  2  5  1  0
  6  1  1  0
  1  7  1  0
  1  8  1  0
  9  6  1  0
  6 10  1  0
  6 11  1  0
 12  9  1  0
  9 13  1  0
  9 14  1  0
 15 12  1  0
 12 16  1  0
 12 17  1  6
 18 15  1  0
 15 19  1  0
 16 20  1  0
 16 21  1  0
 16 22  1  0
 23 18  2  0
 18 24  1  0
 25 23  1  0
 26 23  1  0
 24 27  2  0
 24 28  1  0
 29 25  2  0
 25 30  1  0
 31 26  2  0
 26 32  1  0
 27 31  1  0
 27 33  1  0
 34 29  1  0
 29 35  1  0
 32 34  2  0
 32 36  1  0
 37 34  1  0
  3 38  1  0
  3 39  1  0
  3 40  1  0
 38 41  1  0
 38 42  1  0
 38 43  1  0
  4 44  1  0
  4 45  1  0
  4 46  1  0
 44 47  1  0
 44 48  1  0
 44 49  1  0
 47 50  1  0
M  CHG  2   2   1   5  -1
M  END
>  <SMILES>  (5) 
CC[N+]([O-])(CCO)CCCC(C)Nc1ccnc2cc(Cl)ccc12

>  <Molecular Weight>  (5) 
351.9

>  <Substrate_ID>  (5) 
MOL0037

>  <Substrate>  (5) 


>  <Substrate_SMILES>  (5) 
CCN(CCO)CCCC(C)Nc1ccnc2cc(Cl)ccc12

>  <Reaction>  (5) 
N-oxidation_(tertiary_N),N-oxidation

>  <Score>  (5) 
0.1001

>  <Reaction_Score>  (5) 
0.0117

>  <Bond_Score>  (5) 
0.8569

>  <Rank>  (5) 
4

>  <Subtype>  (5) 
1A2, 2B6, 2C8, 2C9, 2C19, 2D6, 3A4

>  <Subtype_Scores>  (5) 
[1A2] SOM_score: 0.7298, Reaction_score: 0.0117, Score: 0.0924
[2B6] SOM_score: 0.5225, Reaction_score: 0.0117, Score: 0.0782
[2C8] SOM_score: 0.6405, Reaction_score: 0.0117, Score: 0.0865
[2C9] SOM_score: 0.4831, Reaction_score: 0.0117, Score: 0.0752
[2C19] SOM_score: 0.7455, Reaction_score: 0.0117, Score: 0.0934
[2D6] SOM_score: 0.7420, Reaction_score: 0.0117, Score: 0.0932
[3A4] SOM_score: 0.8569, Reaction_score: 0.0117, Score: 0.1001


$$$$
