
     RDKit          2D

 48 50  0  0  0  0  0  0  0  0999 V2000
   -6.1829    3.2110    0.0000 N   0  0  0  0  0  0  0  0  0  2  0  0
   -4.6912    3.0542    0.0000 C   0  0  0  0  0  0  0  0  0 11  0  0
   -6.7930    4.5813    0.0000 C   0  0  0  0  0  0  0  0  0 14  0  0
   -3.1994    2.8974    0.0000 C   0  0  0  0  0  0  0  0  0 10  0  0
   -4.8479    1.5624    0.0000 H   0  0  0  0  0  0  0  0  0  0  0  0
   -4.5344    4.5460    0.0000 H   0  0  0  0  0  0  0  0  0  0  0  0
   -7.4031    5.9517    0.0000 C   0  0  0  0  0  0  0  0  0 15  0  0
   -5.4227    5.1914    0.0000 H   0  0  0  0  0  0  0  0  0  0  0  0
   -8.1634    3.9712    0.0000 H   0  0  0  0  0  0  0  0  0  0  0  0
   -1.7076    2.7406    0.0000 C   0  0  0  0  0  0  0  0  0  9  0  0
   -3.3562    1.4056    0.0000 H   0  0  0  0  0  0  0  0  0  0  0  0
   -3.0426    4.3892    0.0000 H   0  0  0  0  0  0  0  0  0  0  0  0
   -8.0133    7.3220    0.0000 H   0  0  0  0  0  0  0  0  0  0  0  0
   -6.0328    6.5618    0.0000 H   0  0  0  0  0  0  0  0  0  0  0  0
   -8.7735    5.3415    0.0000 H   0  0  0  0  0  0  0  0  0  0  0  0
   -0.2158    2.5838    0.0000 N   0  0  0  0  0  0  0  0  0  1  0  0
   -1.7909    1.9478    0.0000 H   0  0  0  0  0  0  0  0  0  0  0  0
   -1.5508    4.2324    0.0000 H   0  0  0  0  0  0  0  0  0  0  0  0
    0.6659    3.7974    0.0000 C   0  0  0  0  0  0  0  0  0  6  0  0
    0.3943    1.2135    0.0000 C   0  0  0  0  0  0  0  0  0 16  0  0
    2.1577    3.6406    0.0000 C   0  0  0  0  0  0  0  0  0  5  0  0
    0.0558    5.1677    0.0000 C   0  0  0  0  0  0  0  0  0  7  0  0
    1.2760    0.0000    0.0000 C   0  0  0  0  0  0  0  0  0 17  0  0
   -1.0323    0.7500    0.0000 C   0  0  0  0  0  0  0  0  0 24  0  0
    1.6933    1.9635    0.0000 H   0  0  0  0  0  0  0  0  0  0  0  0
    3.0393    4.8541    0.0000 C   0  0  0  0  0  0  0  0  0  4  0  0
    2.7678    2.2703    0.0000 H   0  0  0  0  0  0  0  0  0  0  0  0
    0.9374    6.3812    0.0000 C   0  0  0  0  0  0  0  0  0  8  0  0
   -1.4360    5.3245    0.0000 H   0  0  0  0  0  0  0  0  0  0  0  0
    0.3943   -1.2135    0.0000 C   0  0  0  0  0  0  0  0  0 18  0  0
    2.3907    1.0037    0.0000 H   0  0  0  0  0  0  0  0  0  0  0  0
    2.3907   -1.0037    0.0000 H   0  0  0  0  0  0  0  0  0  0  0  0
   -1.0323   -0.7500    0.0000 C   0  0  0  0  0  0  0  0  0 23  0  0
   -2.5241    0.5932    0.0000 H   0  0  0  0  0  0  0  0  0  0  0  0
   -1.3818    1.4665    0.0000 H   0  0  0  0  0  0  0  0  0  0  0  0
    2.4292    6.2244    0.0000 C   0  0  0  0  0  0  0  0  0  3  0  0
    4.5311    4.6973    0.0000 H   0  0  0  0  0  0  0  0  0  0  0  0
    0.3273    7.7515    0.0000 H   0  0  0  0  0  0  0  0  0  0  0  0
    0.7062   -2.6807    0.0000 C   0  0  0  0  0  0  0  0  0 19  0  0
   -2.1470   -1.7537    0.0000 C   0  0  0  0  0  0  0  0  0 22  0  0
    3.3109    7.4379    0.0000 H   0  0  0  0  0  0  0  0  0  0  0  0
   -0.4086   -3.6844    0.0000 C   0  0  0  0  0  0  0  0  0 20  0  0
    2.1328   -3.1443    0.0000 H   0  0  0  0  0  0  0  0  0  0  0  0
   -1.8351   -3.2209    0.0000 C   0  0  0  0  0  0  0  0  0 21  0  0
   -3.5736   -1.2902    0.0000 H   0  0  0  0  0  0  0  0  0  0  0  0
   -0.0967   -5.1517    0.0000 H   0  0  0  0  0  0  0  0  0  0  0  0
   -2.9499   -4.2246    0.0000 H   0  0  0  0  0  0  0  0  0  0  0  0
   -7.0646    1.9975    0.0000 H   0  0  0  0  0  0  0  0  0  0  0  0
  2  1  1  0
  1  3  1  0
  4  2  1  0
  2  5  1  0
  2  6  1  0
  3  7  1  0
  3  8  1  0
  3  9  1  0
 10  4  1  0
  4 11  1  0
  4 12  1  0
  7 13  1  0
  7 14  1  0
  7 15  1  0
 16 10  1  0
 10 17  1  0
 10 18  1  0
 16 19  1  0
 16 20  1  0
 19 21  2  0
 22 19  1  0
 20 23  1  0
 24 20  1  0
 20 25  1  0
 21 26  1  0
 21 27  1  0
 28 22  2  0
 22 29  1  0
 23 30  1  0
 23 31  1  0
 23 32  1  0
 33 24  1  0
 24 34  1  0
 24 35  1  0
 26 36  2  0
 26 37  1  0
 36 28  1  0
 28 38  1  0
 30 39  1  0
 33 30  2  0
 40 33  1  0
 36 41  1  0
 39 42  2  0
 39 43  1  0
 44 40  2  0
 40 45  1  0
 42 44  1  0
 42 46  1  0
 44 47  1  0
  1 48  1  0
M  END
>  <SMILES>  (1) 
CCNCCCN(c1ccccc1)C1Cc2ccccc2C1

>  <Molecular Weight>  (1) 
294.4

>  <Substrate_ID>  (1) 
MOL0095

>  <Substrate>  (1) 


>  <Substrate_SMILES>  (1) 
CCN(CC)CCCN(c1ccccc1)C1Cc2ccccc2C1

>  <Reaction>  (1) 
N-dealkylation_(tertiaryN-CH2-alkyl)

>  <Score>  (1) 
0.881

>  <Reaction_Score>  (1) 
0.9078

>  <Bond_Score>  (1) 
0.8551

>  <Rank>  (1) 
1

>  <Subtype>  (1) 
1A2, 2A6, 2B6, 2C8, 2C9, 2C19, 2D6, 3A4

>  <Subtype_Scores>  (1) 
[1A2] SOM_score: 0.7591, Reaction_score: 0.9078, Score: 0.8301
[2A6] SOM_score: 0.1015, Reaction_score: 0.9078, Score: 0.3036
[2B6] SOM_score: 0.5630, Reaction_score: 0.9078, Score: 0.7149
[2C8] SOM_score: 0.6435, Reaction_score: 0.9078, Score: 0.7643
[2C9] SOM_score: 0.4623, Reaction_score: 0.9078, Score: 0.6478
[2C19] SOM_score: 0.7405, Reaction_score: 0.9078, Score: 0.8199
[2D6] SOM_score: 0.7312, Reaction_score: 0.9078, Score: 0.8147
[3A4] SOM_score: 0.8551, Reaction_score: 0.9078, Score: 0.8810


$$$$

     RDKit          2D

 31 33  0  0  0  0  0  0  0  0999 V2000
   -0.2158    2.5838    0.0000 N   0  0  0  0  0  0  0  0  0  1  0  0
    0.6659    3.7974    0.0000 C   0  0  0  0  0  0  0  0  0  6  0  0
    0.3943    1.2135    0.0000 C   0  0  0  0  0  0  0  0  0 16  0  0
    2.1577    3.6406    0.0000 C   0  0  0  0  0  0  0  0  0  5  0  0
    0.0558    5.1677    0.0000 C   0  0  0  0  0  0  0  0  0  7  0  0
    1.2760    0.0000    0.0000 C   0  0  0  0  0  0  0  0  0 17  0  0
   -1.0323    0.7500    0.0000 C   0  0  0  0  0  0  0  0  0 24  0  0
    1.6933    1.9635    0.0000 H   0  0  0  0  0  0  0  0  0  0  0  0
    3.0393    4.8541    0.0000 C   0  0  0  0  0  0  0  0  0  4  0  0
    2.7678    2.2703    0.0000 H   0  0  0  0  0  0  0  0  0  0  0  0
    0.9374    6.3812    0.0000 C   0  0  0  0  0  0  0  0  0  8  0  0
   -1.4360    5.3245    0.0000 H   0  0  0  0  0  0  0  0  0  0  0  0
    0.3943   -1.2135    0.0000 C   0  0  0  0  0  0  0  0  0 18  0  0
    2.3907    1.0037    0.0000 H   0  0  0  0  0  0  0  0  0  0  0  0
    2.3907   -1.0037    0.0000 H   0  0  0  0  0  0  0  0  0  0  0  0
   -1.0323   -0.7500    0.0000 C   0  0  0  0  0  0  0  0  0 23  0  0
   -2.5241    0.5932    0.0000 H   0  0  0  0  0  0  0  0  0  0  0  0
   -1.4279    1.8988    0.0000 H   0  0  0  0  0  0  0  0  0  0  0  0
    2.4292    6.2244    0.0000 C   0  0  0  0  0  0  0  0  0  3  0  0
    4.5311    4.6973    0.0000 H   0  0  0  0  0  0  0  0  0  0  0  0
    0.3273    7.7515    0.0000 H   0  0  0  0  0  0  0  0  0  0  0  0
    0.7062   -2.6807    0.0000 C   0  0  0  0  0  0  0  0  0 19  0  0
   -2.1470   -1.7537    0.0000 C   0  0  0  0  0  0  0  0  0 22  0  0
    3.3109    7.4379    0.0000 H   0  0  0  0  0  0  0  0  0  0  0  0
   -0.4086   -3.6844    0.0000 C   0  0  0  0  0  0  0  0  0 20  0  0
    2.1328   -3.1443    0.0000 H   0  0  0  0  0  0  0  0  0  0  0  0
   -1.8351   -3.2209    0.0000 C   0  0  0  0  0  0  0  0  0 21  0  0
   -3.5736   -1.2902    0.0000 H   0  0  0  0  0  0  0  0  0  0  0  0
   -0.0967   -5.1517    0.0000 H   0  0  0  0  0  0  0  0  0  0  0  0
   -2.9499   -4.2246    0.0000 H   0  0  0  0  0  0  0  0  0  0  0  0
   -1.3997    2.8572    0.0000 H   0  0  0  0  0  0  0  0  0  0  0  0
  1  2  1  0
  1  3  1  0
  2  4  2  0
  5  2  1  0
  3  6  1  0
  7  3  1  0
  3  8  1  0
  4  9  1  0
  4 10  1  0
 11  5  2  0
  5 12  1  0
  6 13  1  0
  6 14  1  0
  6 15  1  0
 16  7  1  0
  7 17  1  0
  7 18  1  0
  9 19  2  0
  9 20  1  0
 19 11  1  0
 11 21  1  0
 13 22  1  0
 16 13  2  0
 23 16  1  0
 19 24  1  0
 22 25  2  0
 22 26  1  0
 27 23  2  0
 23 28  1  0
 25 27  1  0
 25 29  1  0
 27 30  1  0
  1 31  1  0
M  END
>  <SMILES>  (2) 
c1ccc(NC2Cc3ccccc3C2)cc1

>  <Molecular Weight>  (2) 
209.3

>  <Substrate_ID>  (2) 
MOL0095

>  <Substrate>  (2) 


>  <Substrate_SMILES>  (2) 
CCN(CC)CCCN(c1ccccc1)C1Cc2ccccc2C1

>  <Reaction>  (2) 
N-dealkylation_(tertiaryN-CH2-alkyl)

>  <Score>  (2) 
0.5743

>  <Reaction_Score>  (2) 
0.5925

>  <Bond_Score>  (2) 
0.5566

>  <Rank>  (2) 
2

>  <Subtype>  (2) 
1A2, 2A6, 2B6, 2C8, 2C9, 2C19, 2D6, 3A4

>  <Subtype_Scores>  (2) 
[1A2] SOM_score: 0.3422, Reaction_score: 0.5925, Score: 0.4503
[2A6] SOM_score: 0.0963, Reaction_score: 0.5925, Score: 0.2389
[2B6] SOM_score: 0.2654, Reaction_score: 0.5925, Score: 0.3966
[2C8] SOM_score: 0.3280, Reaction_score: 0.5925, Score: 0.4409
[2C9] SOM_score: 0.2528, Reaction_score: 0.5925, Score: 0.3871
[2C19] SOM_score: 0.2946, Reaction_score: 0.5925, Score: 0.4178
[2D6] SOM_score: 0.3219, Reaction_score: 0.5925, Score: 0.4367
[3A4] SOM_score: 0.5566, Reaction_score: 0.5925, Score: 0.5743


$$$$

     RDKit          2D

 26 25  0  0  0  0  0  0  0  0999 V2000
   -1.5000    0.0000    0.0000 O   0  0  0  0  0  0  0  0  0 25  0  0
    0.0000    0.0000    0.0000 C   0  0  0  0  0  0  0  0  0  9  0  0
    1.5000    0.0000    0.0000 C   0  0  0  0  0  0  0  0  0 10  0  0
    0.0000    1.5000    0.0000 H   0  0  0  0  0  0  0  0  0  0  0  0
   -0.0000   -1.5000    0.0000 H   0  0  0  0  0  0  0  0  0  0  0  0
    3.0000    0.0000    0.0000 C   0  0  0  0  0  0  0  0  0 11  0  0
    1.5000   -1.5000    0.0000 H   0  0  0  0  0  0  0  0  0  0  0  0
    1.5000    1.5000    0.0000 H   0  0  0  0  0  0  0  0  0  0  0  0
    4.5000    0.0000    0.0000 N   0  0  0  0  0  0  0  0  0  2  0  0
    3.0000    1.5000    0.0000 H   0  0  0  0  0  0  0  0  0  0  0  0
    3.0000   -1.5000    0.0000 H   0  0  0  0  0  0  0  0  0  0  0  0
    5.2500   -1.2990    0.0000 C   0  0  0  0  0  0  0  0  0 12  0  0
    5.2500    1.2990    0.0000 C   0  0  0  0  0  0  0  0  0 14  0  0
    6.0000   -2.5981    0.0000 C   0  0  0  0  0  0  0  0  0 13  0  0
    3.9510   -2.0490    0.0000 H   0  0  0  0  0  0  0  0  0  0  0  0
    6.5490   -0.5490    0.0000 H   0  0  0  0  0  0  0  0  0  0  0  0
    6.0000    2.5981    0.0000 C   0  0  0  0  0  0  0  0  0 15  0  0
    3.9510    2.0490    0.0000 H   0  0  0  0  0  0  0  0  0  0  0  0
    6.5490    0.5490    0.0000 H   0  0  0  0  0  0  0  0  0  0  0  0
    6.7500   -3.8971    0.0000 H   0  0  0  0  0  0  0  0  0  0  0  0
    4.7010   -3.3481    0.0000 H   0  0  0  0  0  0  0  0  0  0  0  0
    7.2990   -1.8481    0.0000 H   0  0  0  0  0  0  0  0  0  0  0  0
    6.7500    3.8971    0.0000 H   0  0  0  0  0  0  0  0  0  0  0  0
    4.7010    3.3481    0.0000 H   0  0  0  0  0  0  0  0  0  0  0  0
    7.2990    1.8481    0.0000 H   0  0  0  0  0  0  0  0  0  0  0  0
   -2.2500   -1.2990    0.0000 H   0  0  0  0  0  0  0  0  0  0  0  0
  1  2  1  0
  2  3  1  0
  2  4  1  0
  2  5  1  0
  3  6  1  0
  3  7  1  0
  3  8  1  0
  6  9  1  0
  6 10  1  0
  6 11  1  0
  9 12  1  0
  9 13  1  0
 12 14  1  0
 12 15  1  0
 12 16  1  0
 13 17  1  0
 13 18  1  0
 13 19  1  0
 14 20  1  0
 14 21  1  0
 14 22  1  0
 17 23  1  0
 17 24  1  0
 17 25  1  0
  1 26  1  0
M  END
>  <SMILES>  (3) 
CCN(CC)CCCO

>  <Molecular Weight>  (3) 
131.2

>  <Substrate_ID>  (3) 
MOL0095

>  <Substrate>  (3) 


>  <Substrate_SMILES>  (3) 
CCN(CC)CCCN(c1ccccc1)C1Cc2ccccc2C1

>  <Reaction>  (3) 
N-dealkylation_(tertiaryN-CH2-alkyl)

>  <Score>  (3) 
0.5743

>  <Reaction_Score>  (3) 
0.5925

>  <Bond_Score>  (3) 
0.5566

>  <Rank>  (3) 
2

>  <Subtype>  (3) 
1A2, 2A6, 2B6, 2C8, 2C9, 2C19, 2D6, 3A4

>  <Subtype_Scores>  (3) 
[1A2] SOM_score: 0.3422, Reaction_score: 0.5925, Score: 0.4503
[2A6] SOM_score: 0.0963, Reaction_score: 0.5925, Score: 0.2389
[2B6] SOM_score: 0.2654, Reaction_score: 0.5925, Score: 0.3966
[2C8] SOM_score: 0.3280, Reaction_score: 0.5925, Score: 0.4409
[2C9] SOM_score: 0.2528, Reaction_score: 0.5925, Score: 0.3871
[2C19] SOM_score: 0.2946, Reaction_score: 0.5925, Score: 0.4178
[2D6] SOM_score: 0.3219, Reaction_score: 0.5925, Score: 0.4367
[3A4] SOM_score: 0.5566, Reaction_score: 0.5925, Score: 0.5743


$$$$

     RDKit          2D

 55 57  0  0  0  0  0  0  0  0999 V2000
    1.2760    0.0000    0.0000 C   0  0  0  0  0  0  0  0  0 17  0  0
    0.3943    1.2135    0.0000 C   0  0  0  0  0  0  0  0  0 18  0  0
   -1.0323    0.7500    0.0000 C   0  0  0  0  0  0  0  0  0 23  0  0
   -2.1470    1.7537    0.0000 C   0  0  0  0  0  0  0  0  0 22  0  0
   -1.8351    3.2209    0.0000 C   0  0  0  0  0  0  0  0  0 21  0  0
   -2.9499    4.2246    0.0000 O   0  0  0  0  0  0  0  0  0 25  0  0
   -0.4086    3.6844    0.0000 C   0  0  0  0  0  0  0  0  0 20  0  0
    0.7062    2.6807    0.0000 C   0  0  0  0  0  0  0  0  0 19  0  0
    0.3943   -1.2135    0.0000 C   0  0  0  0  0  0  0  0  0 16  0  0
    2.3907    1.0037    0.0000 H   0  0  0  0  0  0  0  0  0  0  0  0
    1.9798   -0.3742    0.0000 H   0  0  0  0  0  0  0  0  0  0  0  0
    1.6933   -1.9635    0.0000 N   0  0  0  0  0  0  0  0  0  1  0  0
   -1.0323   -0.7500    0.0000 C   0  0  0  0  0  0  0  0  0 24  0  0
   -0.2158   -2.5838    0.0000 H   0  0  0  0  0  0  0  0  0  0  0  0
    1.6933   -3.4635    0.0000 C   0  0  0  0  0  0  0  0  0  6  0  0
    2.9924   -1.2135    0.0000 C   0  0  0  0  0  0  0  0  0  9  0  0
   -1.3442   -2.2172    0.0000 H   0  0  0  0  0  0  0  0  0  0  0  0
   -2.5241   -0.5932    0.0000 H   0  0  0  0  0  0  0  0  0  0  0  0
    0.3943   -4.2135    0.0000 C   0  0  0  0  0  0  0  0  0  5  0  0
    2.9924   -4.2135    0.0000 C   0  0  0  0  0  0  0  0  0  7  0  0
    4.2914   -0.4635    0.0000 C   0  0  0  0  0  0  0  0  0 10  0  0
    2.5003   -0.3612    0.0000 H   0  0  0  0  0  0  0  0  0  0  0  0
    3.7424   -2.5126    0.0000 H   0  0  0  0  0  0  0  0  0  0  0  0
    0.3943   -5.7135    0.0000 C   0  0  0  0  0  0  0  0  0  4  0  0
   -0.9047   -3.4635    0.0000 H   0  0  0  0  0  0  0  0  0  0  0  0
    2.9924   -5.7135    0.0000 C   0  0  0  0  0  0  0  0  0  8  0  0
    4.2914   -3.4635    0.0000 H   0  0  0  0  0  0  0  0  0  0  0  0
    5.5905    0.2865    0.0000 C   0  0  0  0  0  0  0  0  0 11  0  0
    5.0414   -1.7626    0.0000 H   0  0  0  0  0  0  0  0  0  0  0  0
    3.5414    0.8355    0.0000 H   0  0  0  0  0  0  0  0  0  0  0  0
    1.6933   -6.4635    0.0000 C   0  0  0  0  0  0  0  0  0  3  0  0
   -0.9047   -6.4635    0.0000 H   0  0  0  0  0  0  0  0  0  0  0  0
    4.2914   -6.4635    0.0000 H   0  0  0  0  0  0  0  0  0  0  0  0
    6.8895    1.0365    0.0000 N   0  0  0  0  0  0  0  0  0  2  0  0
    4.8405    1.5855    0.0000 H   0  0  0  0  0  0  0  0  0  0  0  0
    6.3405   -1.0126    0.0000 H   0  0  0  0  0  0  0  0  0  0  0  0
    1.6933   -7.9635    0.0000 H   0  0  0  0  0  0  0  0  0  0  0  0
    8.1885    0.2865    0.0000 C   0  0  0  0  0  0  0  0  0 12  0  0
    6.8895    2.5365    0.0000 C   0  0  0  0  0  0  0  0  0 14  0  0
    9.4876   -0.4635    0.0000 C   0  0  0  0  0  0  0  0  0 13  0  0
    7.4385   -1.0126    0.0000 H   0  0  0  0  0  0  0  0  0  0  0  0
    8.9385    1.5855    0.0000 H   0  0  0  0  0  0  0  0  0  0  0  0
    6.8895    4.0365    0.0000 C   0  0  0  0  0  0  0  0  0 15  0  0
    5.3895    2.5365    0.0000 H   0  0  0  0  0  0  0  0  0  0  0  0
    8.3895    2.5365    0.0000 H   0  0  0  0  0  0  0  0  0  0  0  0
   10.7866   -1.2135    0.0000 H   0  0  0  0  0  0  0  0  0  0  0  0
    8.7376   -1.7626    0.0000 H   0  0  0  0  0  0  0  0  0  0  0  0
   10.2376    0.8355    0.0000 H   0  0  0  0  0  0  0  0  0  0  0  0
    6.8895    5.5365    0.0000 H   0  0  0  0  0  0  0  0  0  0  0  0
    5.3895    4.0365    0.0000 H   0  0  0  0  0  0  0  0  0  0  0  0
    8.3895    4.0365    0.0000 H   0  0  0  0  0  0  0  0  0  0  0  0
   -3.5736    1.2902    0.0000 H   0  0  0  0  0  0  0  0  0  0  0  0
   -0.0967    5.1517    0.0000 H   0  0  0  0  0  0  0  0  0  0  0  0
    2.1328    3.1443    0.0000 H   0  0  0  0  0  0  0  0  0  0  0  0
   -2.6380    5.6918    0.0000 H   0  0  0  0  0  0  0  0  0  0  0  0
  1  2  1  0
  2  3  2  0
  3  4  1  0
  4  5  2  0
  5  6  1  0
  5  7  1  0
  7  8  2  0
  8  2  1  0
  9  1  1  0
  1 10  1  0
  1 11  1  0
 12  9  1  0
 13  9  1  0
  9 14  1  0
 12 15  1  0
 12 16  1  0
  3 13  1  0
 13 17  1  0
 13 18  1  0
 15 19  2  0
 20 15  1  0
 16 21  1  0
 16 22  1  0
 16 23  1  0
 19 24  1  0
 19 25  1  0
 26 20  2  0
 20 27  1  0
 21 28  1  0
 21 29  1  0
 21 30  1  0
 24 31  2  0
 24 32  1  0
 31 26  1  0
 26 33  1  0
 28 34  1  0
 28 35  1  0
 28 36  1  0
 31 37  1  0
 34 38  1  0
 34 39  1  0
 38 40  1  0
 38 41  1  0
 38 42  1  0
 39 43  1  0
 39 44  1  0
 39 45  1  0
 40 46  1  0
 40 47  1  0
 40 48  1  0
 43 49  1  0
 43 50  1  0
 43 51  1  0
  4 52  1  0
  7 53  1  0
  8 54  1  0
  6 55  1  0
M  END
>  <SMILES>  (4) 
CCN(CC)CCCN(c1ccccc1)C1Cc2ccc(O)cc2C1

>  <Molecular Weight>  (4) 
338.5

>  <Substrate_ID>  (4) 
MOL0095

>  <Substrate>  (4) 


>  <Substrate_SMILES>  (4) 
CCN(CC)CCCN(c1ccccc1)C1Cc2ccccc2C1

>  <Reaction>  (4) 
aromatic_hydroxylation_(para_to_carbon),aromatic hydroxylation

>  <Score>  (4) 
0.1585

>  <Reaction_Score>  (4) 
0.175

>  <Bond_Score>  (4) 
0.1436

>  <Rank>  (4) 
3

>  <Subtype>  (4) 
2C8, 3A4

>  <Subtype_Scores>  (4) 
[2C8] SOM_score: 0.0822, Reaction_score: 0.1750, Score: 0.1199
[3A4] SOM_score: 0.1215, Reaction_score: 0.1750, Score: 0.1458


$$$$

     RDKit          2D

 55 57  0  0  0  0  0  0  0  0999 V2000
   -0.2158    2.5838    0.0000 N   0  0  0  0  0  0  0  0  0  1  0  0
    0.6659    3.7974    0.0000 C   0  0  0  0  0  0  0  0  0  6  0  0
    2.1577    3.6406    0.0000 C   0  0  0  0  0  0  0  0  0  7  0  0
    3.0393    4.8541    0.0000 C   0  0  0  0  0  0  0  0  0  8  0  0
    2.4292    6.2244    0.0000 C   0  0  0  0  0  0  0  0  0  3  0  0
    3.3109    7.4379    0.0000 O   0  0  0  0  0  0  0  0  0 25  0  0
    0.9374    6.3812    0.0000 C   0  0  0  0  0  0  0  0  0  4  0  0
    0.0558    5.1677    0.0000 C   0  0  0  0  0  0  0  0  0  5  0  0
   -1.7076    2.7406    0.0000 C   0  0  0  0  0  0  0  0  0  9  0  0
    0.3943    1.2135    0.0000 C   0  0  0  0  0  0  0  0  0 16  0  0
   -3.1994    2.8974    0.0000 C   0  0  0  0  0  0  0  0  0 10  0  0
   -1.7909    1.9478    0.0000 H   0  0  0  0  0  0  0  0  0  0  0  0
   -1.5508    4.2324    0.0000 H   0  0  0  0  0  0  0  0  0  0  0  0
    1.2760    0.0000    0.0000 C   0  0  0  0  0  0  0  0  0 17  0  0
   -1.0323    0.7500    0.0000 C   0  0  0  0  0  0  0  0  0 24  0  0
    1.6933    1.9635    0.0000 H   0  0  0  0  0  0  0  0  0  0  0  0
   -4.6912    3.0542    0.0000 C   0  0  0  0  0  0  0  0  0 11  0  0
   -3.0426    4.3892    0.0000 H   0  0  0  0  0  0  0  0  0  0  0  0
   -3.3562    1.4056    0.0000 H   0  0  0  0  0  0  0  0  0  0  0  0
    0.3943   -1.2135    0.0000 C   0  0  0  0  0  0  0  0  0 18  0  0
    2.3907    1.0037    0.0000 H   0  0  0  0  0  0  0  0  0  0  0  0
    2.3907   -1.0037    0.0000 H   0  0  0  0  0  0  0  0  0  0  0  0
   -1.0323   -0.7500    0.0000 C   0  0  0  0  0  0  0  0  0 23  0  0
   -2.5241    0.5932    0.0000 H   0  0  0  0  0  0  0  0  0  0  0  0
   -1.3818    1.4665    0.0000 H   0  0  0  0  0  0  0  0  0  0  0  0
   -6.1829    3.2110    0.0000 N   0  0  0  0  0  0  0  0  0  2  0  0
   -4.8479    1.5624    0.0000 H   0  0  0  0  0  0  0  0  0  0  0  0
   -4.5344    4.5460    0.0000 H   0  0  0  0  0  0  0  0  0  0  0  0
    0.7062   -2.6807    0.0000 C   0  0  0  0  0  0  0  0  0 19  0  0
   -2.1470   -1.7537    0.0000 C   0  0  0  0  0  0  0  0  0 22  0  0
   -6.7930    4.5813    0.0000 C   0  0  0  0  0  0  0  0  0 12  0  0
   -7.0646    1.9975    0.0000 C   0  0  0  0  0  0  0  0  0 14  0  0
   -0.4086   -3.6844    0.0000 C   0  0  0  0  0  0  0  0  0 20  0  0
    2.1328   -3.1443    0.0000 H   0  0  0  0  0  0  0  0  0  0  0  0
   -1.8351   -3.2209    0.0000 C   0  0  0  0  0  0  0  0  0 21  0  0
   -3.5736   -1.2902    0.0000 H   0  0  0  0  0  0  0  0  0  0  0  0
   -7.4031    5.9517    0.0000 C   0  0  0  0  0  0  0  0  0 13  0  0
   -5.4227    5.1914    0.0000 H   0  0  0  0  0  0  0  0  0  0  0  0
   -8.1634    3.9712    0.0000 H   0  0  0  0  0  0  0  0  0  0  0  0
   -7.9463    0.7840    0.0000 C   0  0  0  0  0  0  0  0  0 15  0  0
   -5.8511    1.1158    0.0000 H   0  0  0  0  0  0  0  0  0  0  0  0
   -8.2781    2.8792    0.0000 H   0  0  0  0  0  0  0  0  0  0  0  0
   -0.0967   -5.1517    0.0000 H   0  0  0  0  0  0  0  0  0  0  0  0
   -2.9499   -4.2246    0.0000 H   0  0  0  0  0  0  0  0  0  0  0  0
   -8.0133    7.3220    0.0000 H   0  0  0  0  0  0  0  0  0  0  0  0
   -6.0328    6.5618    0.0000 H   0  0  0  0  0  0  0  0  0  0  0  0
   -8.7735    5.3415    0.0000 H   0  0  0  0  0  0  0  0  0  0  0  0
   -8.8280   -0.4296    0.0000 H   0  0  0  0  0  0  0  0  0  0  0  0
   -6.7328   -0.0977    0.0000 H   0  0  0  0  0  0  0  0  0  0  0  0
   -9.1598    1.6656    0.0000 H   0  0  0  0  0  0  0  0  0  0  0  0
    2.7678    2.2703    0.0000 H   0  0  0  0  0  0  0  0  0  0  0  0
    4.5311    4.6973    0.0000 H   0  0  0  0  0  0  0  0  0  0  0  0
    0.3273    7.7515    0.0000 H   0  0  0  0  0  0  0  0  0  0  0  0
   -1.4360    5.3245    0.0000 H   0  0  0  0  0  0  0  0  0  0  0  0
    2.7008    8.8083    0.0000 H   0  0  0  0  0  0  0  0  0  0  0  0
  1  2  1  0
  2  3  2  0
  3  4  1  0
  4  5  2  0
  5  6  1  0
  5  7  1  0
  7  8  2  0
  8  2  1  0
  1  9  1  0
  1 10  1  0
  9 11  1  0
  9 12  1  0
  9 13  1  0
 10 14  1  0
 15 10  1  0
 10 16  1  0
 11 17  1  0
 11 18  1  0
 11 19  1  0
 14 20  1  0
 14 21  1  0
 14 22  1  0
 23 15  1  0
 15 24  1  0
 15 25  1  0
 17 26  1  0
 17 27  1  0
 17 28  1  0
 20 29  1  0
 23 20  2  0
 30 23  1  0
 26 31  1  0
 26 32  1  0
 29 33  2  0
 29 34  1  0
 35 30  2  0
 30 36  1  0
 31 37  1  0
 31 38  1  0
 31 39  1  0
 32 40  1  0
 32 41  1  0
 32 42  1  0
 33 35  1  0
 33 43  1  0
 35 44  1  0
 37 45  1  0
 37 46  1  0
 37 47  1  0
 40 48  1  0
 40 49  1  0
 40 50  1  0
  3 51  1  0
  4 52  1  0
  7 53  1  0
  8 54  1  0
  6 55  1  0
M  END
>  <SMILES>  (5) 
CCN(CC)CCCN(c1ccc(O)cc1)C1Cc2ccccc2C1

>  <Molecular Weight>  (5) 
338.5

>  <Substrate_ID>  (5) 
MOL0095

>  <Substrate>  (5) 


>  <Substrate_SMILES>  (5) 
CCN(CC)CCCN(c1ccccc1)C1Cc2ccccc2C1

>  <Reaction>  (5) 
aromatic_hydroxylation_(para_to_nitrogen),aromatic hydroxylation

>  <Score>  (5) 
0.1536

>  <Reaction_Score>  (5) 
0.1754

>  <Bond_Score>  (5) 
0.1345

>  <Rank>  (5) 
4

>  <Subtype>  (5) 
2C8

>  <Subtype_Scores>  (5) 
[2C8] SOM_score: 0.0771, Reaction_score: 0.1754, Score: 0.1163


$$$$

     RDKit          2D

 16 15  0  0  0  0  0  0  0  0999 V2000
   -1.5000    0.0000    0.0000 N   0  0  0  0  0  0  0  0  0  2  0  0
    0.0000    0.0000    0.0000 C   0  0  0  0  0  0  0  0  0 12  0  0
   -2.2500   -1.2990    0.0000 C   0  0  0  0  0  0  0  0  0 14  0  0
    1.5000    0.0000    0.0000 C   0  0  0  0  0  0  0  0  0 13  0  0
    0.0000    1.5000    0.0000 H   0  0  0  0  0  0  0  0  0  0  0  0
   -0.0000   -1.5000    0.0000 H   0  0  0  0  0  0  0  0  0  0  0  0
   -3.0000   -2.5981    0.0000 C   0  0  0  0  0  0  0  0  0 15  0  0
   -0.9510   -2.0490    0.0000 H   0  0  0  0  0  0  0  0  0  0  0  0
   -3.5490   -0.5490    0.0000 H   0  0  0  0  0  0  0  0  0  0  0  0
    3.0000    0.0000    0.0000 H   0  0  0  0  0  0  0  0  0  0  0  0
    1.5000   -1.5000    0.0000 H   0  0  0  0  0  0  0  0  0  0  0  0
    1.5000    1.5000    0.0000 H   0  0  0  0  0  0  0  0  0  0  0  0
   -3.7500   -3.8971    0.0000 H   0  0  0  0  0  0  0  0  0  0  0  0
   -1.7010   -3.3481    0.0000 H   0  0  0  0  0  0  0  0  0  0  0  0
   -4.2990   -1.8481    0.0000 H   0  0  0  0  0  0  0  0  0  0  0  0
   -2.2500    1.2990    0.0000 H   0  0  0  0  0  0  0  0  0  0  0  0
  1  2  1  0
  1  3  1  0
  2  4  1  0
  2  5  1  0
  2  6  1  0
  3  7  1  0
  3  8  1  0
  3  9  1  0
  4 10  1  0
  4 11  1  0
  4 12  1  0
  7 13  1  0
  7 14  1  0
  7 15  1  0
  1 16  1  0
M  END
>  <SMILES>  (6) 
CCNCC

>  <Molecular Weight>  (6) 
73.1

>  <Substrate_ID>  (6) 
MOL0095

>  <Substrate>  (6) 


>  <Substrate_SMILES>  (6) 
CCN(CC)CCCN(c1ccccc1)C1Cc2ccccc2C1

>  <Reaction>  (6) 
N-dealkylation_(tertiaryN-CH2-alkyl)

>  <Score>  (6) 
0.1492

>  <Reaction_Score>  (6) 
0.141

>  <Bond_Score>  (6) 
0.1579

>  <Rank>  (6) 
5

>  <Subtype>  (6) 
3A4

>  <Subtype_Scores>  (6) 
[3A4] SOM_score: 0.1579, Reaction_score: 0.1410, Score: 0.1492


$$$$

     RDKit          2D

 41 43  0  0  0  0  0  0  0  0999 V2000
   -6.1829    3.2110    0.0000 O   0  0  0  0  0  0  0  0  0 25  0  0
   -4.6912    3.0542    0.0000 C   0  0  0  0  0  0  0  0  0 11  0  0
   -3.1994    2.8974    0.0000 C   0  0  0  0  0  0  0  0  0 10  0  0
   -4.8479    1.5624    0.0000 H   0  0  0  0  0  0  0  0  0  0  0  0
   -4.5344    4.5460    0.0000 H   0  0  0  0  0  0  0  0  0  0  0  0
   -1.7076    2.7406    0.0000 C   0  0  0  0  0  0  0  0  0  9  0  0
   -3.3562    1.4056    0.0000 H   0  0  0  0  0  0  0  0  0  0  0  0
   -3.0426    4.3892    0.0000 H   0  0  0  0  0  0  0  0  0  0  0  0
   -0.2158    2.5838    0.0000 N   0  0  0  0  0  0  0  0  0  1  0  0
   -1.7909    1.9478    0.0000 H   0  0  0  0  0  0  0  0  0  0  0  0
   -1.5508    4.2324    0.0000 H   0  0  0  0  0  0  0  0  0  0  0  0
    0.6659    3.7974    0.0000 C   0  0  0  0  0  0  0  0  0  6  0  0
    0.3943    1.2135    0.0000 C   0  0  0  0  0  0  0  0  0 16  0  0
    2.1577    3.6406    0.0000 C   0  0  0  0  0  0  0  0  0  5  0  0
    0.0558    5.1677    0.0000 C   0  0  0  0  0  0  0  0  0  7  0  0
    1.2760    0.0000    0.0000 C   0  0  0  0  0  0  0  0  0 17  0  0
   -1.0323    0.7500    0.0000 C   0  0  0  0  0  0  0  0  0 24  0  0
    1.6933    1.9635    0.0000 H   0  0  0  0  0  0  0  0  0  0  0  0
    3.0393    4.8541    0.0000 C   0  0  0  0  0  0  0  0  0  4  0  0
    2.7678    2.2703    0.0000 H   0  0  0  0  0  0  0  0  0  0  0  0
    0.9374    6.3812    0.0000 C   0  0  0  0  0  0  0  0  0  8  0  0
   -1.4360    5.3245    0.0000 H   0  0  0  0  0  0  0  0  0  0  0  0
    0.3943   -1.2135    0.0000 C   0  0  0  0  0  0  0  0  0 18  0  0
    2.3907    1.0037    0.0000 H   0  0  0  0  0  0  0  0  0  0  0  0
    2.3907   -1.0037    0.0000 H   0  0  0  0  0  0  0  0  0  0  0  0
   -1.0323   -0.7500    0.0000 C   0  0  0  0  0  0  0  0  0 23  0  0
   -2.5241    0.5932    0.0000 H   0  0  0  0  0  0  0  0  0  0  0  0
   -1.3818    1.4665    0.0000 H   0  0  0  0  0  0  0  0  0  0  0  0
    2.4292    6.2244    0.0000 C   0  0  0  0  0  0  0  0  0  3  0  0
    4.5311    4.6973    0.0000 H   0  0  0  0  0  0  0  0  0  0  0  0
    0.3273    7.7515    0.0000 H   0  0  0  0  0  0  0  0  0  0  0  0
    0.7062   -2.6807    0.0000 C   0  0  0  0  0  0  0  0  0 19  0  0
   -2.1470   -1.7537    0.0000 C   0  0  0  0  0  0  0  0  0 22  0  0
    3.3109    7.4379    0.0000 H   0  0  0  0  0  0  0  0  0  0  0  0
   -0.4086   -3.6844    0.0000 C   0  0  0  0  0  0  0  0  0 20  0  0
    2.1328   -3.1443    0.0000 H   0  0  0  0  0  0  0  0  0  0  0  0
   -1.8351   -3.2209    0.0000 C   0  0  0  0  0  0  0  0  0 21  0  0
   -3.5736   -1.2902    0.0000 H   0  0  0  0  0  0  0  0  0  0  0  0
   -0.0967   -5.1517    0.0000 H   0  0  0  0  0  0  0  0  0  0  0  0
   -2.9499   -4.2246    0.0000 H   0  0  0  0  0  0  0  0  0  0  0  0
   -6.7930    4.5813    0.0000 H   0  0  0  0  0  0  0  0  0  0  0  0
  1  2  1  0
  3  2  1  0
  2  4  1  0
  2  5  1  0
  6  3  1  0
  3  7  1  0
  3  8  1  0
  9  6  1  0
  6 10  1  0
  6 11  1  0
  9 12  1  0
  9 13  1  0
 12 14  2  0
 15 12  1  0
 13 16  1  0
 17 13  1  0
 13 18  1  0
 14 19  1  0
 14 20  1  0
 21 15  2  0
 15 22  1  0
 16 23  1  0
 16 24  1  0
 16 25  1  0
 26 17  1  0
 17 27  1  0
 17 28  1  0
 19 29  2  0
 19 30  1  0
 29 21  1  0
 21 31  1  0
 23 32  1  0
 26 23  2  0
 33 26  1  0
 29 34  1  0
 32 35  2  0
 32 36  1  0
 37 33  2  0
 33 38  1  0
 35 37  1  0
 35 39  1  0
 37 40  1  0
  1 41  1  0
M  END
>  <SMILES>  (7) 
OCCCN(c1ccccc1)C1Cc2ccccc2C1

>  <Molecular Weight>  (7) 
267.4

>  <Substrate_ID>  (7) 
MOL0095

>  <Substrate>  (7) 


>  <Substrate_SMILES>  (7) 
CCN(CC)CCCN(c1ccccc1)C1Cc2ccccc2C1

>  <Reaction>  (7) 
N-dealkylation_(tertiaryN-CH2-alkyl)

>  <Score>  (7) 
0.1492

>  <Reaction_Score>  (7) 
0.141

>  <Bond_Score>  (7) 
0.1579

>  <Rank>  (7) 
5

>  <Subtype>  (7) 
3A4

>  <Subtype_Scores>  (7) 
[3A4] SOM_score: 0.1579, Reaction_score: 0.1410, Score: 0.1492


$$$$

     RDKit          2D

 55 57  0  0  0  0  0  0  0  0999 V2000
   -4.6912    3.0542    0.0000 C   0  0  0  0  0  0  0  0  0 11  0  0
   -6.1829    3.2110    0.0000 N   0  0  0  0  0  4  0  0  0  2  0  0
   -7.6747    3.3678    0.0000 C   0  0  0  0  0  0  0  0  0 12  0  0
   -6.0261    4.7028    0.0000 C   0  0  0  0  0  0  0  0  0 14  0  0
   -6.3397    1.7192    0.0000 O   0  0  0  0  0  1  0  0  0 25  0  0
   -3.1994    2.8974    0.0000 C   0  0  0  0  0  0  0  0  0 10  0  0
   -4.8479    1.5624    0.0000 H   0  0  0  0  0  0  0  0  0  0  0  0
   -4.3537    4.5158    0.0000 H   0  0  0  0  0  0  0  0  0  0  0  0
   -1.7076    2.7406    0.0000 C   0  0  0  0  0  0  0  0  0  9  0  0
   -3.3562    1.4056    0.0000 H   0  0  0  0  0  0  0  0  0  0  0  0
   -3.0426    4.3892    0.0000 H   0  0  0  0  0  0  0  0  0  0  0  0
   -0.2158    2.5838    0.0000 N   0  0  0  0  0  0  0  0  0  1  0  0
   -1.7909    1.9478    0.0000 H   0  0  0  0  0  0  0  0  0  0  0  0
   -1.5508    4.2324    0.0000 H   0  0  0  0  0  0  0  0  0  0  0  0
    0.6659    3.7974    0.0000 C   0  0  0  0  0  0  0  0  0  6  0  0
    0.3943    1.2135    0.0000 C   0  0  0  0  0  0  0  0  0 16  0  0
    2.1577    3.6406    0.0000 C   0  0  0  0  0  0  0  0  0  5  0  0
    0.0558    5.1677    0.0000 C   0  0  0  0  0  0  0  0  0  7  0  0
    1.2760    0.0000    0.0000 C   0  0  0  0  0  0  0  0  0 17  0  0
   -1.0323    0.7500    0.0000 C   0  0  0  0  0  0  0  0  0 24  0  0
    1.6933    1.9635    0.0000 H   0  0  0  0  0  0  0  0  0  0  0  0
    3.0393    4.8541    0.0000 C   0  0  0  0  0  0  0  0  0  4  0  0
    2.7678    2.2703    0.0000 H   0  0  0  0  0  0  0  0  0  0  0  0
    0.9374    6.3812    0.0000 C   0  0  0  0  0  0  0  0  0  8  0  0
   -1.4360    5.3245    0.0000 H   0  0  0  0  0  0  0  0  0  0  0  0
    0.3943   -1.2135    0.0000 C   0  0  0  0  0  0  0  0  0 18  0  0
    2.3907    1.0037    0.0000 H   0  0  0  0  0  0  0  0  0  0  0  0
    2.3907   -1.0037    0.0000 H   0  0  0  0  0  0  0  0  0  0  0  0
   -1.0323   -0.7500    0.0000 C   0  0  0  0  0  0  0  0  0 23  0  0
   -2.5241    0.5932    0.0000 H   0  0  0  0  0  0  0  0  0  0  0  0
   -1.3818    1.4665    0.0000 H   0  0  0  0  0  0  0  0  0  0  0  0
    2.4292    6.2244    0.0000 C   0  0  0  0  0  0  0  0  0  3  0  0
    4.5311    4.6973    0.0000 H   0  0  0  0  0  0  0  0  0  0  0  0
    0.3273    7.7515    0.0000 H   0  0  0  0  0  0  0  0  0  0  0  0
    0.7062   -2.6807    0.0000 C   0  0  0  0  0  0  0  0  0 19  0  0
   -2.1470   -1.7537    0.0000 C   0  0  0  0  0  0  0  0  0 22  0  0
    3.3109    7.4379    0.0000 H   0  0  0  0  0  0  0  0  0  0  0  0
   -0.4086   -3.6844    0.0000 C   0  0  0  0  0  0  0  0  0 20  0  0
    2.1328   -3.1443    0.0000 H   0  0  0  0  0  0  0  0  0  0  0  0
   -1.8351   -3.2209    0.0000 C   0  0  0  0  0  0  0  0  0 21  0  0
   -3.5736   -1.2902    0.0000 H   0  0  0  0  0  0  0  0  0  0  0  0
   -0.0967   -5.1517    0.0000 H   0  0  0  0  0  0  0  0  0  0  0  0
   -2.9499   -4.2246    0.0000 H   0  0  0  0  0  0  0  0  0  0  0  0
   -9.1665    3.5246    0.0000 C   0  0  0  0  0  0  0  0  0 13  0  0
   -7.7009    4.8676    0.0000 H   0  0  0  0  0  0  0  0  0  0  0  0
   -7.8315    1.8760    0.0000 H   0  0  0  0  0  0  0  0  0  0  0  0
  -10.6583    3.6814    0.0000 H   0  0  0  0  0  0  0  0  0  0  0  0
   -9.0097    5.0164    0.0000 H   0  0  0  0  0  0  0  0  0  0  0  0
   -9.3233    2.0328    0.0000 H   0  0  0  0  0  0  0  0  0  0  0  0
   -5.8694    6.1946    0.0000 C   0  0  0  0  0  0  0  0  0 15  0  0
   -4.5264    4.7290    0.0000 H   0  0  0  0  0  0  0  0  0  0  0  0
   -7.4877    5.0403    0.0000 H   0  0  0  0  0  0  0  0  0  0  0  0
   -5.7126    7.6864    0.0000 H   0  0  0  0  0  0  0  0  0  0  0  0
   -7.3611    6.3514    0.0000 H   0  0  0  0  0  0  0  0  0  0  0  0
   -4.3776    6.0378    0.0000 H   0  0  0  0  0  0  0  0  0  0  0  0
  1  2  1  0
  2  3  1  0
  2  4  1  0
  2  5  1  0
  6  1  1  0
  1  7  1  0
  1  8  1  0
  9  6  1  0
  6 10  1  0
  6 11  1  0
 12  9  1  0
  9 13  1  0
  9 14  1  0
 12 15  1  0
 12 16  1  0
 15 17  2  0
 18 15  1  0
 16 19  1  0
 20 16  1  0
 16 21  1  0
 17 22  1  0
 17 23  1  0
 24 18  2  0
 18 25  1  0
 19 26  1  0
 19 27  1  0
 19 28  1  0
 29 20  1  0
 20 30  1  0
 20 31  1  0
 22 32  2  0
 22 33  1  0
 32 24  1  0
 24 34  1  0
 26 35  1  0
 29 26  2  0
 36 29  1  0
 32 37  1  0
 35 38  2  0
 35 39  1  0
 40 36  2  0
 36 41  1  0
 38 40  1  0
 38 42  1  0
 40 43  1  0
  3 44  1  0
  3 45  1  0
  3 46  1  0
 44 47  1  0
 44 48  1  0
 44 49  1  0
  4 50  1  0
  4 51  1  0
  4 52  1  0
 50 53  1  0
 50 54  1  0
 50 55  1  0
M  CHG  2   2   1   5  -1
M  END
>  <SMILES>  (8) 
CC[N+]([O-])(CC)CCCN(c1ccccc1)C1Cc2ccccc2C1

>  <Molecular Weight>  (8) 
338.5

>  <Substrate_ID>  (8) 
MOL0095

>  <Substrate>  (8) 


>  <Substrate_SMILES>  (8) 
CCN(CC)CCCN(c1ccccc1)C1Cc2ccccc2C1

>  <Reaction>  (8) 
N-oxidation_(tertiary_N),N-oxidation

>  <Score>  (8) 
0.1298

>  <Reaction_Score>  (8) 
0.0197

>  <Bond_Score>  (8) 
0.8562

>  <Rank>  (8) 
6

>  <Subtype>  (8) 
1A2, 2A6, 2B6, 2C8, 2C9, 2C19, 2D6, 3A4

>  <Subtype_Scores>  (8) 
[1A2] SOM_score: 0.7677, Reaction_score: 0.0197, Score: 0.1229
[2A6] SOM_score: 0.1032, Reaction_score: 0.0197, Score: 0.0451
[2B6] SOM_score: 0.5778, Reaction_score: 0.0197, Score: 0.1066
[2C8] SOM_score: 0.6760, Reaction_score: 0.0197, Score: 0.1153
[2C9] SOM_score: 0.5243, Reaction_score: 0.0197, Score: 0.1016
[2C19] SOM_score: 0.7789, Reaction_score: 0.0197, Score: 0.1238
[2D6] SOM_score: 0.7729, Reaction_score: 0.0197, Score: 0.1233
[3A4] SOM_score: 0.8562, Reaction_score: 0.0197, Score: 0.1298


$$$$

     RDKit          2D

 55 57  0  0  0  0  0  0  0  0999 V2000
   -0.2158    2.5838    0.0000 N   0  0  0  0  0  4  0  0  0  1  0  0
   -0.8259    3.9542    0.0000 O   0  0  0  0  0  1  0  0  0 25  0  0
   -1.5861    1.9737    0.0000 C   0  0  0  0  0  0  0  0  0  6  0  0
    1.1545    3.1939    0.0000 C   0  0  0  0  0  0  0  0  0  9  0  0
    0.3943    1.2135    0.0000 C   0  0  0  0  0  0  0  0  0 16  0  0
    2.5248    3.8041    0.0000 C   0  0  0  0  0  0  0  0  0 10  0  0
    0.5444    4.5643    0.0000 H   0  0  0  0  0  0  0  0  0  0  0  0
    1.6107    2.4347    0.0000 H   0  0  0  0  0  0  0  0  0  0  0  0
    1.2760    0.0000    0.0000 C   0  0  0  0  0  0  0  0  0 17  0  0
   -1.0323    0.7500    0.0000 C   0  0  0  0  0  0  0  0  0 24  0  0
    1.2096    1.5596    0.0000 H   0  0  0  0  0  0  0  0  0  0  0  0
    3.8951    4.4142    0.0000 C   0  0  0  0  0  0  0  0  0 11  0  0
    3.1349    2.4337    0.0000 H   0  0  0  0  0  0  0  0  0  0  0  0
    1.9147    5.1744    0.0000 H   0  0  0  0  0  0  0  0  0  0  0  0
    0.3943   -1.2135    0.0000 C   0  0  0  0  0  0  0  0  0 18  0  0
    2.3907    1.0037    0.0000 H   0  0  0  0  0  0  0  0  0  0  0  0
    2.3907   -1.0037    0.0000 H   0  0  0  0  0  0  0  0  0  0  0  0
   -1.0323   -0.7500    0.0000 C   0  0  0  0  0  0  0  0  0 23  0  0
   -2.4418    0.2369    0.0000 H   0  0  0  0  0  0  0  0  0  0  0  0
   -1.3818    1.4665    0.0000 H   0  0  0  0  0  0  0  0  0  0  0  0
    5.2655    5.0243    0.0000 N   0  0  0  0  0  0  0  0  0  2  0  0
    3.2850    5.7845    0.0000 H   0  0  0  0  0  0  0  0  0  0  0  0
    4.5053    3.0438    0.0000 H   0  0  0  0  0  0  0  0  0  0  0  0
    0.7062   -2.6807    0.0000 C   0  0  0  0  0  0  0  0  0 19  0  0
   -2.1470   -1.7537    0.0000 C   0  0  0  0  0  0  0  0  0 22  0  0
    6.4790    4.1426    0.0000 C   0  0  0  0  0  0  0  0  0 12  0  0
    5.4223    6.5160    0.0000 C   0  0  0  0  0  0  0  0  0 14  0  0
   -0.4086   -3.6844    0.0000 C   0  0  0  0  0  0  0  0  0 20  0  0
    2.1328   -3.1443    0.0000 H   0  0  0  0  0  0  0  0  0  0  0  0
   -1.8351   -3.2209    0.0000 C   0  0  0  0  0  0  0  0  0 21  0  0
   -3.6195   -1.4675    0.0000 H   0  0  0  0  0  0  0  0  0  0  0  0
    7.6925    3.2609    0.0000 C   0  0  0  0  0  0  0  0  0 13  0  0
    5.5973    2.9291    0.0000 H   0  0  0  0  0  0  0  0  0  0  0  0
    7.3607    5.3561    0.0000 H   0  0  0  0  0  0  0  0  0  0  0  0
    5.5791    8.0078    0.0000 C   0  0  0  0  0  0  0  0  0 15  0  0
    3.9305    6.6728    0.0000 H   0  0  0  0  0  0  0  0  0  0  0  0
    6.9140    6.3593    0.0000 H   0  0  0  0  0  0  0  0  0  0  0  0
   -0.0967   -5.1517    0.0000 H   0  0  0  0  0  0  0  0  0  0  0  0
   -2.9499   -4.2246    0.0000 H   0  0  0  0  0  0  0  0  0  0  0  0
    8.9060    2.3792    0.0000 H   0  0  0  0  0  0  0  0  0  0  0  0
    6.8108    2.0474    0.0000 H   0  0  0  0  0  0  0  0  0  0  0  0
    8.5742    4.4744    0.0000 H   0  0  0  0  0  0  0  0  0  0  0  0
    5.7358    9.4996    0.0000 H   0  0  0  0  0  0  0  0  0  0  0  0
    4.0873    8.1646    0.0000 H   0  0  0  0  0  0  0  0  0  0  0  0
    7.0708    7.8510    0.0000 H   0  0  0  0  0  0  0  0  0  0  0  0
   -2.7997    2.8554    0.0000 C   0  0  0  0  0  0  0  0  0  5  0  0
   -1.7429    0.4820    0.0000 C   0  0  0  0  0  0  0  0  0  7  0  0
   -4.1700    2.2453    0.0000 C   0  0  0  0  0  0  0  0  0  4  0  0
   -2.6429    4.3472    0.0000 H   0  0  0  0  0  0  0  0  0  0  0  0
   -3.1132   -0.1281    0.0000 C   0  0  0  0  0  0  0  0  0  8  0  0
   -0.7788   -0.6672    0.0000 H   0  0  0  0  0  0  0  0  0  0  0  0
   -4.3268    0.7535    0.0000 C   0  0  0  0  0  0  0  0  0  3  0  0
   -5.3835    3.1270    0.0000 H   0  0  0  0  0  0  0  0  0  0  0  0
   -3.4507   -1.5897    0.0000 H   0  0  0  0  0  0  0  0  0  0  0  0
   -5.6971    0.1434    0.0000 H   0  0  0  0  0  0  0  0  0  0  0  0
  1  2  1  0
  1  3  1  0
  1  4  1  0
  1  5  1  0
  4  6  1  0
  4  7  1  0
  4  8  1  0
  5  9  1  0
 10  5  1  0
  5 11  1  0
  6 12  1  0
  6 13  1  0
  6 14  1  0
  9 15  1  0
  9 16  1  0
  9 17  1  0
 18 10  1  0
 10 19  1  0
 10 20  1  0
 12 21  1  0
 12 22  1  0
 12 23  1  0
 15 24  1  0
 18 15  2  0
 25 18  1  0
 21 26  1  0
 21 27  1  0
 24 28  2  0
 24 29  1  0
 30 25  2  0
 25 31  1  0
 26 32  1  0
 26 33  1  0
 26 34  1  0
 27 35  1  0
 27 36  1  0
 27 37  1  0
 28 30  1  0
 28 38  1  0
 30 39  1  0
 32 40  1  0
 32 41  1  0
 32 42  1  0
 35 43  1  0
 35 44  1  0
 35 45  1  0
  3 46  2  0
 47  3  1  0
 46 48  1  0
 46 49  1  0
 50 47  2  0
 47 51  1  0
 48 52  2  0
 48 53  1  0
 52 50  1  0
 50 54  1  0
 52 55  1  0
M  CHG  2   1   1   2  -1
M  END
>  <SMILES>  (9) 
CCN(CC)CCC[N+]([O-])(c1ccccc1)C1Cc2ccccc2C1

>  <Molecular Weight>  (9) 
338.5

>  <Substrate_ID>  (9) 
MOL0095

>  <Substrate>  (9) 


>  <Substrate_SMILES>  (9) 
CCN(CC)CCCN(c1ccccc1)C1Cc2ccccc2C1

>  <Reaction>  (9) 
N-oxidation

>  <Score>  (9) 
0.1127

>  <Reaction_Score>  (9) 
0.0173

>  <Bond_Score>  (9) 
0.7327

>  <Rank>  (9) 
7

>  <Subtype>  (9) 
1A2, 2A6, 2B6, 2C8, 2C9, 2C19, 2D6, 3A4

>  <Subtype_Scores>  (9) 
[1A2] SOM_score: 0.6326, Reaction_score: 0.0173, Score: 0.1047
[2A6] SOM_score: 0.2706, Reaction_score: 0.0173, Score: 0.0685
[2B6] SOM_score: 0.5277, Reaction_score: 0.0173, Score: 0.0956
[2C8] SOM_score: 0.4888, Reaction_score: 0.0173, Score: 0.0920
[2C9] SOM_score: 0.4793, Reaction_score: 0.0173, Score: 0.0911
[2C19] SOM_score: 0.5671, Reaction_score: 0.0173, Score: 0.0991
[2D6] SOM_score: 0.5782, Reaction_score: 0.0173, Score: 0.1001
[3A4] SOM_score: 0.7327, Reaction_score: 0.0173, Score: 0.1127


$$$$
