
     RDKit          2D

 48 51  0  0  0  0  0  0  0  0999 V2000
    1.2760    0.0000    0.0000 C   0  0  0  0  0  0  0  0  0 26  0  0
    2.7760    0.0000    0.0000 C   0  0  0  0  0  0  0  0  0  9  0  0
    4.2760    0.0000    0.0000 O   0  0  0  0  0  0  0  0  0 29  0  0
    0.3943    1.2135    0.0000 C   0  0  0  0  0  0  0  0  0 17  0  0
    0.3943   -1.2135    0.0000 N   0  0  0  0  0  0  0  0  0  7  0  0
   -1.0323    0.7500    0.0000 N   0  0  0  0  0  0  0  0  0  6  0  0
    0.8578    2.6401    0.0000 H   0  0  0  0  0  0  0  0  0  0  0  0
   -1.0323   -0.7500    0.0000 C   0  0  0  0  0  0  0  0  0 27  0  0
    0.9214   -2.6179    0.0000 C   0  0  0  0  0  0  0  0  0 25  0  0
   -2.2841   -1.5763    0.0000 C   0  0  0  0  0  0  0  0  0 28  0  0
    2.4212   -2.6403    0.0000 C   0  0  0  0  0  0  0  0  0 16  0  0
    0.1520   -3.9056    0.0000 C   0  0  0  0  0  0  0  0  0 24  0  0
   -2.4186   -3.0703    0.0000 N   0  0  0  0  0  0  0  0  0  4  0  0
   -2.8112   -0.1720    0.0000 C   0  0  0  0  0  0  0  0  0 19  0  0
   -3.7706   -1.7777    0.0000 H   0  0  0  0  0  0  0  0  0  0  0  0
    3.1517   -3.9504    0.0000 C   0  0  0  0  0  0  0  0  0 13  0  0
    3.3418   -1.4560    0.0000 H   0  0  0  0  0  0  0  0  0  0  0  0
    0.8825   -5.2157    0.0000 C   0  0  0  0  0  0  0  0  0 15  0  0
   -1.3344   -4.1069    0.0000 C   0  0  0  0  0  0  0  0  0 21  0  0
   -3.3383    1.2324    0.0000 C   0  0  0  0  0  0  0  0  0 18  0  0
   -4.2156   -0.6991    0.0000 H   0  0  0  0  0  0  0  0  0  0  0  0
   -1.9108    0.4485    0.0000 H   0  0  0  0  0  0  0  0  0  0  0  0
    2.3823   -5.2381    0.0000 C   0  0  0  0  0  0  0  0  0 22  0  0
    4.6515   -3.9729    0.0000 H   0  0  0  0  0  0  0  0  0  0  0  0
    0.5601   -5.9447    0.0000 H   0  0  0  0  0  0  0  0  0  0  0  0
   -1.7979   -5.5335    0.0000 C   0  0  0  0  0  0  0  0  0 23  0  0
   -3.8653    2.6367    0.0000 C   0  0  0  0  0  0  0  0  0 20  0  0
   -1.9339    1.7594    0.0000 H   0  0  0  0  0  0  0  0  0  0  0  0
   -4.7426    0.7053    0.0000 H   0  0  0  0  0  0  0  0  0  0  0  0
    3.1128   -6.5482    0.0000 Br  0  0  0  0  0  0  0  0  0  1  0  0
   -3.2652   -5.8454    0.0000 N   0  0  0  0  0  0  0  0  0  5  0  0
   -0.7942   -6.6482    0.0000 C   0  0  0  0  0  0  0  0  0 14  0  0
   -2.9127    3.7953    0.0000 O   0  0  0  0  0  0  0  0  0  2  0  0
   -5.3451    2.8824    0.0000 O   0  0  0  0  0  0  0  0  0  3  0  0
   -3.7287   -7.2719    0.0000 C   0  0  0  0  0  0  0  0  0 12  0  0
   -1.2578   -8.0748    0.0000 C   0  0  0  0  0  0  0  0  0 11  0  0
   -0.0001   -6.5787    0.0000 H   0  0  0  0  0  0  0  0  0  0  0  0
   -5.8721    4.2868    0.0000 C   0  0  0  0  0  0  0  0  0  8  0  0
   -2.7250   -8.3867    0.0000 C   0  0  0  0  0  0  0  0  0 10  0  0
   -5.1959   -7.5838    0.0000 H   0  0  0  0  0  0  0  0  0  0  0  0
   -0.2541   -9.1895    0.0000 H   0  0  0  0  0  0  0  0  0  0  0  0
   -6.3992    5.6911    0.0000 H   0  0  0  0  0  0  0  0  0  0  0  0
   -7.2765    3.7597    0.0000 H   0  0  0  0  0  0  0  0  0  0  0  0
   -4.4678    4.8139    0.0000 H   0  0  0  0  0  0  0  0  0  0  0  0
   -3.1885   -9.8132    0.0000 H   0  0  0  0  0  0  0  0  0  0  0  0
    2.7760    1.5000    0.0000 H   0  0  0  0  0  0  0  0  0  0  0  0
    2.9588   -1.4888    0.0000 H   0  0  0  0  0  0  0  0  0  0  0  0
    5.0260    1.2990    0.0000 H   0  0  0  0  0  0  0  0  0  0  0  0
  1  2  1  0
  2  3  1  0
  4  1  2  0
  1  5  1  0
  6  4  1  0
  4  7  1  0
  5  8  1  0
  5  9  1  0
  8  6  2  0
 10  8  1  0
 11  9  2  0
  9 12  1  0
 13 10  1  0
 10 14  1  0
 10 15  1  6
 16 11  1  0
 11 17  1  0
 12 18  2  0
 12 19  1  0
 19 13  2  0
 14 20  1  0
 14 21  1  0
 14 22  1  0
 23 16  2  0
 16 24  1  0
 18 23  1  0
 18 25  1  0
 19 26  1  0
 20 27  1  0
 20 28  1  0
 20 29  1  0
 30 23  1  0
 26 31  2  0
 32 26  1  0
 27 33  2  0
 27 34  1  0
 31 35  1  0
 36 32  2  0
 32 37  1  0
 34 38  1  0
 35 39  2  0
 35 40  1  0
 39 36  1  0
 36 41  1  0
 38 42  1  0
 38 43  1  0
 38 44  1  0
 39 45  1  0
  2 46  1  0
  2 47  1  0
  3 48  1  0
M  END
>  <SMILES>  (1) 
COC(=O)CCC1N=C(c2ccccn2)c2cc(Br)ccc2-n2c(CO)cnc21

>  <Molecular Weight>  (1) 
455.3

>  <Substrate_ID>  (1) 
MOL0075

>  <Substrate>  (1) 


>  <Substrate_SMILES>  (1) 
COC(=O)CCC1N=C(c2ccccn2)c2cc(Br)ccc2-n2c(C)cnc21

>  <Reaction>  (1) 
benzylic_hydroxylation_(c-CH3),aliphatic hydroxylation

>  <Score>  (1) 
0.4281

>  <Reaction_Score>  (1) 
0.4435

>  <Bond_Score>  (1) 
0.4132

>  <Rank>  (1) 
1

>  <Subtype>  (1) 
2C8, 2C9, 2C19, 3A4

>  <Subtype_Scores>  (1) 
[2C8] SOM_score: 0.1957, Reaction_score: 0.4435, Score: 0.2947
[2C9] SOM_score: 0.2597, Reaction_score: 0.4435, Score: 0.3394
[2C19] SOM_score: 0.2526, Reaction_score: 0.4435, Score: 0.3347
[3A4] SOM_score: 0.4132, Reaction_score: 0.4435, Score: 0.4281


$$$$

     RDKit          2D

 48 51  0  0  0  0  0  0  0  0999 V2000
    0.9214    2.6179    0.0000 C   0  0  0  0  0  0  0  0  0 28  0  0
    2.1732    1.7915    0.0000 O   0  0  0  0  0  0  0  0  0 29  0  0
    2.4485    0.3170    0.0000 H   0  0  0  0  0  0  0  0  0  0  0  0
    0.1520    3.9056    0.0000 N   0  0  0  0  0  0  0  0  0  4  0  0
    2.0056    3.6545    0.0000 C   0  0  0  0  0  0  0  0  0 19  0  0
    0.3943    1.2135    0.0000 C   0  0  0  0  0  0  0  0  0 27  0  0
   -1.3344    4.1069    0.0000 C   0  0  0  0  0  0  0  0  0 21  0  0
    3.0897    4.6911    0.0000 C   0  0  0  0  0  0  0  0  0 18  0  0
    0.9690    4.7387    0.0000 H   0  0  0  0  0  0  0  0  0  0  0  0
    3.0421    2.5703    0.0000 H   0  0  0  0  0  0  0  0  0  0  0  0
    1.2760    0.0000    0.0000 N   0  0  0  0  0  0  0  0  0  6  0  0
   -1.0323    0.7500    0.0000 N   0  0  0  0  0  0  0  0  0  7  0  0
   -2.4186    3.0703    0.0000 C   0  0  0  0  0  0  0  0  0 24  0  0
   -1.7979    5.5335    0.0000 C   0  0  0  0  0  0  0  0  0 23  0  0
    4.1739    5.7277    0.0000 C   0  0  0  0  0  0  0  0  0 20  0  0
    2.0532    5.7753    0.0000 H   0  0  0  0  0  0  0  0  0  0  0  0
    4.1263    3.6069    0.0000 H   0  0  0  0  0  0  0  0  0  0  0  0
    0.3943   -1.2135    0.0000 C   0  0  0  0  0  0  0  0  0 17  0  0
   -1.0323   -0.7500    0.0000 C   0  0  0  0  0  0  0  0  0 26  0  0
   -2.2841    1.5763    0.0000 C   0  0  0  0  0  0  0  0  0 25  0  0
   -3.7796    3.7008    0.0000 C   0  0  0  0  0  0  0  0  0 15  0  0
   -0.7942    6.6482    0.0000 N   0  0  0  0  0  0  0  0  0  5  0  0
   -3.2652    5.8454    0.0000 C   0  0  0  0  0  0  0  0  0 14  0  0
    3.8183    7.1849    0.0000 O   0  0  0  0  0  0  0  0  0  2  0  0
    5.6138    5.3070    0.0000 O   0  0  0  0  0  0  0  0  0  3  0  0
    0.8578   -2.6401    0.0000 H   0  0  0  0  0  0  0  0  0  0  0  0
   -2.2458   -1.6317    0.0000 C   0  0  0  0  0  0  0  0  0  9  0  0
   -3.5107    0.7129    0.0000 C   0  0  0  0  0  0  0  0  0 16  0  0
   -5.0062    2.8374    0.0000 C   0  0  0  0  0  0  0  0  0 22  0  0
   -3.9473    4.4802    0.0000 H   0  0  0  0  0  0  0  0  0  0  0  0
   -1.2578    8.0748    0.0000 C   0  0  0  0  0  0  0  0  0 12  0  0
   -3.7287    7.2719    0.0000 C   0  0  0  0  0  0  0  0  0 11  0  0
   -3.8668    5.3224    0.0000 H   0  0  0  0  0  0  0  0  0  0  0  0
    6.6979    6.3436    0.0000 C   0  0  0  0  0  0  0  0  0  8  0  0
   -1.3641   -2.8452    0.0000 H   0  0  0  0  0  0  0  0  0  0  0  0
   -3.2688   -0.5347    0.0000 H   0  0  0  0  0  0  0  0  0  0  0  0
   -3.4593   -2.5134    0.0000 H   0  0  0  0  0  0  0  0  0  0  0  0
   -4.8718    1.3435    0.0000 C   0  0  0  0  0  0  0  0  0 13  0  0
   -3.5594   -0.7863    0.0000 H   0  0  0  0  0  0  0  0  0  0  0  0
   -6.3673    3.4680    0.0000 Br  0  0  0  0  0  0  0  0  0  1  0  0
   -2.7250    8.3867    0.0000 C   0  0  0  0  0  0  0  0  0 10  0  0
   -0.2541    9.1895    0.0000 H   0  0  0  0  0  0  0  0  0  0  0  0
   -5.1959    7.5838    0.0000 H   0  0  0  0  0  0  0  0  0  0  0  0
    7.7345    5.2594    0.0000 H   0  0  0  0  0  0  0  0  0  0  0  0
    5.6613    7.4278    0.0000 H   0  0  0  0  0  0  0  0  0  0  0  0
    7.7821    7.3802    0.0000 H   0  0  0  0  0  0  0  0  0  0  0  0
   -6.0983    0.4800    0.0000 H   0  0  0  0  0  0  0  0  0  0  0  0
   -3.1885    9.8132    0.0000 H   0  0  0  0  0  0  0  0  0  0  0  0
  1  2  1  6
  2  3  1  0
  4  1  1  0
  1  5  1  0
  1  6  1  0
  7  4  2  0
  5  8  1  0
  5  9  1  0
  5 10  1  0
  6 11  2  0
 12  6  1  0
 13  7  1  0
  7 14  1  0
  8 15  1  0
  8 16  1  0
  8 17  1  0
 11 18  1  0
 19 12  1  0
 12 20  1  0
 20 13  2  0
 13 21  1  0
 14 22  2  0
 23 14  1  0
 15 24  2  0
 15 25  1  0
 18 19  2  0
 18 26  1  0
 19 27  1  0
 28 20  1  0
 21 29  2  0
 21 30  1  0
 22 31  1  0
 32 23  2  0
 23 33  1  0
 25 34  1  0
 27 35  1  0
 27 36  1  0
 27 37  1  0
 38 28  2  0
 28 39  1  0
 40 29  1  0
 29 38  1  0
 31 41  2  0
 31 42  1  0
 41 32  1  0
 32 43  1  0
 34 44  1  0
 34 45  1  0
 34 46  1  0
 38 47  1  0
 41 48  1  0
M  END
>  <SMILES>  (2) 
COC(=O)CCC1(O)N=C(c2ccccn2)c2cc(Br)ccc2-n2c(C)cnc21

>  <Molecular Weight>  (2) 
455.3

>  <Substrate_ID>  (2) 
MOL0075

>  <Substrate>  (2) 


>  <Substrate_SMILES>  (2) 
COC(=O)CCC1N=C(c2ccccn2)c2cc(Br)ccc2-n2c(C)cnc21

>  <Reaction>  (2) 
aliphatic hydroxylation

>  <Score>  (2) 
0.136

>  <Reaction_Score>  (2) 
0.0902

>  <Bond_Score>  (2) 
0.2053

>  <Rank>  (2) 
2

>  <Subtype>  (2) 
3A4

>  <Subtype_Scores>  (2) 
[3A4] SOM_score: 0.2053, Reaction_score: 0.0902, Score: 0.1360


$$$$

     RDKit          2D

 48 51  0  0  0  0  0  0  0  0999 V2000
   -1.3344    4.1069    0.0000 C   0  0  0  0  0  0  0  0  0 21  0  0
   -1.7979    5.5335    0.0000 C   0  0  0  0  0  0  0  0  0 23  0  0
   -0.7942    6.6482    0.0000 N   0  0  0  0  0  0  0  0  0  5  0  0
   -1.2578    8.0748    0.0000 C   0  0  0  0  0  0  0  0  0 12  0  0
   -2.7250    8.3867    0.0000 C   0  0  0  0  0  0  0  0  0 10  0  0
   -3.1885    9.8132    0.0000 O   0  0  0  0  0  0  0  0  0 29  0  0
   -3.7287    7.2719    0.0000 C   0  0  0  0  0  0  0  0  0 11  0  0
   -3.2652    5.8454    0.0000 C   0  0  0  0  0  0  0  0  0 14  0  0
    0.1520    3.9056    0.0000 C   0  0  0  0  0  0  0  0  0 24  0  0
   -2.4186    3.0703    0.0000 N   0  0  0  0  0  0  0  0  0  4  0  0
    0.9214    2.6179    0.0000 C   0  0  0  0  0  0  0  0  0 25  0  0
    0.8825    5.2157    0.0000 C   0  0  0  0  0  0  0  0  0 15  0  0
   -2.2841    1.5763    0.0000 C   0  0  0  0  0  0  0  0  0 28  0  0
    2.4212    2.6403    0.0000 C   0  0  0  0  0  0  0  0  0 16  0  0
    0.3943    1.2135    0.0000 N   0  0  0  0  0  0  0  0  0  7  0  0
    2.3823    5.2381    0.0000 C   0  0  0  0  0  0  0  0  0 22  0  0
    0.1131    6.5033    0.0000 H   0  0  0  0  0  0  0  0  0  0  0  0
   -3.7706    1.7777    0.0000 C   0  0  0  0  0  0  0  0  0 19  0  0
   -1.0323    0.7500    0.0000 C   0  0  0  0  0  0  0  0  0 27  0  0
   -2.8112    0.1720    0.0000 H   0  0  0  0  0  0  0  0  0  0  0  0
    3.1517    3.9504    0.0000 C   0  0  0  0  0  0  0  0  0 13  0  0
    2.9648    1.9410    0.0000 H   0  0  0  0  0  0  0  0  0  0  0  0
    1.2760    0.0000    0.0000 C   0  0  0  0  0  0  0  0  0 26  0  0
    3.1128    6.5482    0.0000 Br  0  0  0  0  0  0  0  0  0  1  0  0
   -5.2570    1.9790    0.0000 C   0  0  0  0  0  0  0  0  0 18  0  0
   -3.9719    0.2913    0.0000 H   0  0  0  0  0  0  0  0  0  0  0  0
   -3.5692    3.2641    0.0000 H   0  0  0  0  0  0  0  0  0  0  0  0
   -1.0323   -0.7500    0.0000 N   0  0  0  0  0  0  0  0  0  6  0  0
    4.6515    3.9729    0.0000 H   0  0  0  0  0  0  0  0  0  0  0  0
    0.3943   -1.2135    0.0000 C   0  0  0  0  0  0  0  0  0 17  0  0
    2.7760    0.0000    0.0000 C   0  0  0  0  0  0  0  0  0  9  0  0
   -6.7434    2.1804    0.0000 C   0  0  0  0  0  0  0  0  0 20  0  0
   -5.4583    0.4926    0.0000 H   0  0  0  0  0  0  0  0  0  0  0  0
   -5.0556    3.4655    0.0000 H   0  0  0  0  0  0  0  0  0  0  0  0
    0.8578   -2.6401    0.0000 H   0  0  0  0  0  0  0  0  0  0  0  0
    4.2760    0.0000    0.0000 H   0  0  0  0  0  0  0  0  0  0  0  0
    2.8839    0.8791    0.0000 H   0  0  0  0  0  0  0  0  0  0  0  0
    2.7760   -1.5000    0.0000 H   0  0  0  0  0  0  0  0  0  0  0  0
   -7.6610    0.9938    0.0000 O   0  0  0  0  0  0  0  0  0  2  0  0
   -7.3123    3.5684    0.0000 O   0  0  0  0  0  0  0  0  0  3  0  0
   -8.7987    3.7697    0.0000 C   0  0  0  0  0  0  0  0  0  8  0  0
  -10.2851    3.9711    0.0000 H   0  0  0  0  0  0  0  0  0  0  0  0
   -8.5973    5.2561    0.0000 H   0  0  0  0  0  0  0  0  0  0  0  0
   -9.0000    2.2833    0.0000 H   0  0  0  0  0  0  0  0  0  0  0  0
   -0.2541    9.1895    0.0000 H   0  0  0  0  0  0  0  0  0  0  0  0
   -5.1959    7.5838    0.0000 H   0  0  0  0  0  0  0  0  0  0  0  0
   -4.2689    4.7306    0.0000 H   0  0  0  0  0  0  0  0  0  0  0  0
   -4.6557   10.1251    0.0000 H   0  0  0  0  0  0  0  0  0  0  0  0
  1  2  1  0
  2  3  2  0
  3  4  1  0
  4  5  2  0
  5  6  1  0
  5  7  1  0
  7  8  2  0
  8  2  1  0
  9  1  1  0
  1 10  2  0
 11  9  2  0
  9 12  1  0
 10 13  1  0
 14 11  1  0
 15 11  1  0
 12 16  2  0
 12 17  1  0
 13 18  1  0
 13 19  1  0
 13 20  1  1
 21 14  2  0
 14 22  1  0
 23 15  1  0
 15 19  1  0
 24 16  1  0
 16 21  1  0
 18 25  1  0
 18 26  1  0
 18 27  1  0
 19 28  2  0
 21 29  1  0
 30 23  2  0
 23 31  1  0
 25 32  1  0
 25 33  1  0
 25 34  1  0
 28 30  1  0
 30 35  1  0
 31 36  1  0
 31 37  1  0
 31 38  1  0
 32 39  2  0
 32 40  1  0
 40 41  1  0
 41 42  1  0
 41 43  1  0
 41 44  1  0
  4 45  1  0
  7 46  1  0
  8 47  1  0
  6 48  1  0
M  END
>  <SMILES>  (3) 
COC(=O)CCC1N=C(c2ccc(O)cn2)c2cc(Br)ccc2-n2c(C)cnc21

>  <Molecular Weight>  (3) 
455.3

>  <Substrate_ID>  (3) 
MOL0075

>  <Substrate>  (3) 


>  <Substrate_SMILES>  (3) 
COC(=O)CCC1N=C(c2ccccn2)c2cc(Br)ccc2-n2c(C)cnc21

>  <Reaction>  (3) 
aromatic_hydroxylation_(para_to_carbon),aromatic hydroxylation

>  <Score>  (3) 
0.1326

>  <Reaction_Score>  (3) 
0.1384

>  <Bond_Score>  (3) 
0.127

>  <Rank>  (3) 
3

>  <Subtype>  (3) 
3A4

>  <Subtype_Scores>  (3) 
[3A4] SOM_score: 0.1270, Reaction_score: 0.1384, Score: 0.1326


$$$$

     RDKit          2D

 44 47  0  0  0  0  0  0  0  0999 V2000
    4.1739    5.7277    0.0000 C   0  0  0  0  0  0  0  0  0 20  0  0
    3.8183    7.1849    0.0000 O   0  0  0  0  0  0  0  0  0  3  0  0
    3.0897    4.6911    0.0000 C   0  0  0  0  0  0  0  0  0 18  0  0
    5.6138    5.3070    0.0000 O   0  0  0  0  0  0  0  0  0  2  0  0
    2.0056    3.6545    0.0000 C   0  0  0  0  0  0  0  0  0 19  0  0
    4.1263    3.6069    0.0000 H   0  0  0  0  0  0  0  0  0  0  0  0
    2.0532    5.7753    0.0000 H   0  0  0  0  0  0  0  0  0  0  0  0
    0.9214    2.6179    0.0000 C   0  0  0  0  0  0  0  0  0 28  0  0
    0.9690    4.7387    0.0000 H   0  0  0  0  0  0  0  0  0  0  0  0
    3.0421    2.5703    0.0000 H   0  0  0  0  0  0  0  0  0  0  0  0
    0.1520    3.9056    0.0000 N   0  0  0  0  0  0  0  0  0  4  0  0
    0.3943    1.2135    0.0000 C   0  0  0  0  0  0  0  0  0 27  0  0
    2.1732    1.7915    0.0000 H   0  0  0  0  0  0  0  0  0  0  0  0
   -1.3344    4.1069    0.0000 C   0  0  0  0  0  0  0  0  0 21  0  0
    1.2760    0.0000    0.0000 N   0  0  0  0  0  0  0  0  0  6  0  0
   -1.0323    0.7500    0.0000 N   0  0  0  0  0  0  0  0  0  7  0  0
   -2.4186    3.0703    0.0000 C   0  0  0  0  0  0  0  0  0 24  0  0
   -1.7979    5.5335    0.0000 C   0  0  0  0  0  0  0  0  0 23  0  0
    0.3943   -1.2135    0.0000 C   0  0  0  0  0  0  0  0  0 17  0  0
   -1.0323   -0.7500    0.0000 C   0  0  0  0  0  0  0  0  0 26  0  0
   -2.2841    1.5763    0.0000 C   0  0  0  0  0  0  0  0  0 25  0  0
   -3.7796    3.7008    0.0000 C   0  0  0  0  0  0  0  0  0 15  0  0
   -3.2652    5.8454    0.0000 N   0  0  0  0  0  0  0  0  0  5  0  0
   -0.7942    6.6482    0.0000 C   0  0  0  0  0  0  0  0  0 14  0  0
    0.8578   -2.6401    0.0000 H   0  0  0  0  0  0  0  0  0  0  0  0
   -2.2458   -1.6317    0.0000 C   0  0  0  0  0  0  0  0  0  9  0  0
   -3.5107    0.7129    0.0000 C   0  0  0  0  0  0  0  0  0 16  0  0
   -5.0062    2.8374    0.0000 C   0  0  0  0  0  0  0  0  0 22  0  0
   -3.9141    5.1948    0.0000 H   0  0  0  0  0  0  0  0  0  0  0  0
   -3.7287    7.2719    0.0000 C   0  0  0  0  0  0  0  0  0 12  0  0
   -1.2578    8.0748    0.0000 C   0  0  0  0  0  0  0  0  0 11  0  0
    0.6730    6.3363    0.0000 H   0  0  0  0  0  0  0  0  0  0  0  0
   -3.4593   -2.5134    0.0000 H   0  0  0  0  0  0  0  0  0  0  0  0
   -2.8499   -0.9839    0.0000 H   0  0  0  0  0  0  0  0  0  0  0  0
   -1.3641   -2.8452    0.0000 H   0  0  0  0  0  0  0  0  0  0  0  0
   -4.8718    1.3435    0.0000 C   0  0  0  0  0  0  0  0  0 13  0  0
   -3.5395   -0.1723    0.0000 H   0  0  0  0  0  0  0  0  0  0  0  0
   -6.3673    3.4680    0.0000 Br  0  0  0  0  0  0  0  0  0  1  0  0
   -2.7250    8.3867    0.0000 C   0  0  0  0  0  0  0  0  0 10  0  0
   -5.1959    7.5838    0.0000 H   0  0  0  0  0  0  0  0  0  0  0  0
   -0.2541    9.1895    0.0000 H   0  0  0  0  0  0  0  0  0  0  0  0
   -6.0983    0.4800    0.0000 H   0  0  0  0  0  0  0  0  0  0  0  0
   -3.1885    9.8132    0.0000 H   0  0  0  0  0  0  0  0  0  0  0  0
    4.9025    8.2215    0.0000 H   0  0  0  0  0  0  0  0  0  0  0  0
  1  2  1  0
  3  1  1  0
  1  4  2  0
  5  3  1  0
  3  6  1  0
  3  7  1  0
  8  5  1  0
  5  9  1  0
  5 10  1  0
 11  8  1  0
  8 12  1  0
  8 13  1  6
 14 11  2  0
 12 15  2  0
 16 12  1  0
 17 14  1  0
 14 18  1  0
 15 19  1  0
 20 16  1  0
 16 21  1  0
 21 17  2  0
 17 22  1  0
 18 23  2  0
 24 18  1  0
 19 20  2  0
 19 25  1  0
 20 26  1  0
 27 21  1  0
 22 28  2  0
 22 29  1  0
 23 30  1  0
 31 24  2  0
 24 32  1  0
 26 33  1  0
 26 34  1  0
 26 35  1  0
 36 27  2  0
 27 37  1  0
 38 28  1  0
 28 36  1  0
 30 39  2  0
 30 40  1  0
 39 31  1  0
 31 41  1  0
 36 42  1  0
 39 43  1  0
  2 44  1  0
M  END
>  <SMILES>  (4) 
Cc1cnc2n1-c1ccc(Br)cc1C(c1ccccn1)=NC2CCC(=O)O

>  <Molecular Weight>  (4) 
425.3

>  <Substrate_ID>  (4) 
MOL0075

>  <Substrate>  (4) 


>  <Substrate_SMILES>  (4) 
COC(=O)CCC1N=C(c2ccccn2)c2cc(Br)ccc2-n2c(C)cnc21

>  <Reaction>  (4) 
oxidative ester cleavage

>  <Score>  (4) 
0.1186

>  <Reaction_Score>  (4) 
0.1064

>  <Bond_Score>  (4) 
0.1322

>  <Rank>  (4) 
4

>  <Subtype>  (4) 
3A4

>  <Subtype_Scores>  (4) 
[3A4] SOM_score: 0.1322, Reaction_score: 0.1064, Score: 0.1186


$$$$
