
     RDKit          2D

 43 45  0  0  0  0  0  0  0  0999 V2000
    3.0000   -5.1962    0.0000 O   0  0  0  0  0  0  0  0  0  4  0  0
    1.5000   -5.1962    0.0000 C   0  0  0  0  0  0  0  0  0 20  0  0
    0.7500   -3.8971    0.0000 C   0  0  0  0  0  0  0  0  0 19  0  0
   -0.7500   -3.8971    0.0000 C   0  0  0  0  0  0  0  0  0 18  0  0
   -1.5000   -5.1962    0.0000 C   0  0  0  0  0  0  0  0  0 24  0  0
   -0.7500   -6.4952    0.0000 C   0  0  0  0  0  0  0  0  0 23  0  0
    0.7500   -6.4952    0.0000 C   0  0  0  0  0  0  0  0  0 21  0  0
    1.5000   -7.7942    0.0000 O   0  0  0  0  0  0  0  0  0  3  0  0
    1.5000   -2.5981    0.0000 H   0  0  0  0  0  0  0  0  0  0  0  0
   -1.5000   -2.5981    0.0000 O   0  0  0  0  0  0  0  0  0  2  0  0
   -3.0000   -2.5981    0.0000 C   0  0  0  0  0  0  0  0  0 17  0  0
   -4.5000   -2.5981    0.0000 C   0  0  0  0  0  0  0  0  0 16  0  0
   -2.9028   -3.3893    0.0000 H   0  0  0  0  0  0  0  0  0  0  0  0
   -2.6370   -1.1427    0.0000 H   0  0  0  0  0  0  0  0  0  0  0  0
   -4.2395   -4.0753    0.0000 C   0  0  0  0  0  0  0  0  0 15  0  0
   -5.9095   -2.0850    0.0000 C   0  0  0  0  0  0  0  0  0 12  0  0
   -3.8898   -1.2278    0.0000 H   0  0  0  0  0  0  0  0  0  0  0  0
   -5.3886   -5.0395    0.0000 N   0  0  0  0  0  0  0  0  0  5  0  0
   -3.6535   -5.4561    0.0000 H   0  0  0  0  0  0  0  0  0  0  0  0
   -3.4628   -3.8960    0.0000 H   0  0  0  0  0  0  0  0  0  0  0  0
   -5.1595   -0.7860    0.0000 C   0  0  0  0  0  0  0  0  0  9  0  0
   -7.0586   -3.0492    0.0000 C   0  0  0  0  0  0  0  0  0 13  0  0
   -7.0586   -1.1209    0.0000 H   0  0  0  0  0  0  0  0  0  0  0  0
   -6.7981   -4.5264    0.0000 C   0  0  0  0  0  0  0  0  0 14  0  0
   -5.1281   -6.5167    0.0000 H   0  0  0  0  0  0  0  0  0  0  0  0
   -3.6595   -0.7860    0.0000 C   0  0  0  0  0  0  0  0  0  8  0  0
   -5.9095    0.5130    0.0000 C   0  0  0  0  0  0  0  0  0 10  0  0
   -7.8086   -1.7502    0.0000 H   0  0  0  0  0  0  0  0  0  0  0  0
   -8.4681   -3.5623    0.0000 H   0  0  0  0  0  0  0  0  0  0  0  0
   -8.2981   -4.5264    0.0000 H   0  0  0  0  0  0  0  0  0  0  0  0
   -7.0586   -6.0037    0.0000 H   0  0  0  0  0  0  0  0  0  0  0  0
   -2.9095    0.5130    0.0000 C   0  0  0  0  0  0  0  0  0  7  0  0
   -2.6175   -1.8650    0.0000 H   0  0  0  0  0  0  0  0  0  0  0  0
   -5.1595    1.8121    0.0000 C   0  0  0  0  0  0  0  0  0 11  0  0
   -7.4095    0.5130    0.0000 H   0  0  0  0  0  0  0  0  0  0  0  0
   -3.6595    1.8121    0.0000 C   0  0  0  0  0  0  0  0  0  6  0  0
   -1.4095    0.5130    0.0000 H   0  0  0  0  0  0  0  0  0  0  0  0
   -5.9095    3.1111    0.0000 H   0  0  0  0  0  0  0  0  0  0  0  0
   -2.9095    3.1111    0.0000 F   0  0  0  0  0  0  0  0  0  1  0  0
   -2.9888   -5.3790    0.0000 H   0  0  0  0  0  0  0  0  0  0  0  0
   -1.5000   -7.7942    0.0000 H   0  0  0  0  0  0  0  0  0  0  0  0
    3.7500   -3.8971    0.0000 H   0  0  0  0  0  0  0  0  0  0  0  0
    3.0000   -7.7942    0.0000 H   0  0  0  0  0  0  0  0  0  0  0  0
  1  2  1  0
  2  3  2  0
  3  4  1  0
  4  5  2  0
  5  6  1  0
  6  7  2  0
  7  8  1  0
  7  2  1  0
  3  9  1  0
 10  4  1  0
 11 10  1  0
 12 11  1  0
 11 13  1  0
 11 14  1  0
 15 12  1  0
 12 16  1  0
 12 17  1  1
 18 15  1  0
 15 19  1  0
 15 20  1  0
 21 16  1  0
 16 22  1  0
 16 23  1  6
 24 18  1  0
 18 25  1  0
 26 21  2  0
 21 27  1  0
 22 24  1  0
 22 28  1  0
 22 29  1  0
 24 30  1  0
 24 31  1  0
 32 26  1  0
 26 33  1  0
 27 34  2  0
 27 35  1  0
 36 32  2  0
 32 37  1  0
 34 36  1  0
 34 38  1  0
 39 36  1  0
  5 40  1  0
  6 41  1  0
  1 42  1  0
  8 43  1  0
M  END
>  <SMILES>  (1) 
Oc1ccc(OCC2CNCCC2c2ccc(F)cc2)cc1O

>  <Molecular Weight>  (1) 
317.4

>  <Substrate_ID>  (1) 
MOL0094

>  <Substrate>  (1) 


>  <Substrate_SMILES>  (1) 
Fc1ccc(C2CCNCC2COc2ccc3c(c2)OCO3)cc1

>  <Reaction>  (1) 
O-dealkylation_(methylenedioxyphenyl)a

>  <Score>  (1) 
0.798

>  <Reaction_Score>  (1) 
0.8378

>  <Bond_Score>  (1) 
0.7601

>  <Rank>  (1) 
1

>  <Subtype>  (1) 
1A2, 2B6, 2C8, 2C9, 2C19, 2D6, 3A4

>  <Subtype_Scores>  (1) 
[1A2] SOM_score: 0.6843, Reaction_score: 0.8378, Score: 0.7572
[2B6] SOM_score: 0.4724, Reaction_score: 0.8378, Score: 0.6291
[2C8] SOM_score: 0.5844, Reaction_score: 0.8378, Score: 0.6997
[2C9] SOM_score: 0.4540, Reaction_score: 0.8378, Score: 0.6167
[2C19] SOM_score: 0.6756, Reaction_score: 0.8378, Score: 0.7523
[2D6] SOM_score: 0.6836, Reaction_score: 0.8378, Score: 0.7568
[3A4] SOM_score: 0.7601, Reaction_score: 0.8378, Score: 0.7980


$$$$

     RDKit          2D

 16 17  0  0  0  0  0  0  0  0999 V2000
   -0.4086    3.6844    0.0000 C   0  0  0  0  0  0  0  0  0 18  0  0
   -0.0967    5.1517    0.0000 O   0  0  0  0  0  0  0  0  0  2  0  0
    0.7062    2.6807    0.0000 C   0  0  0  0  0  0  0  0  0 19  0  0
   -1.8351    3.2209    0.0000 C   0  0  0  0  0  0  0  0  0 24  0  0
    0.3943    1.2135    0.0000 C   0  0  0  0  0  0  0  0  0 20  0  0
    2.1328    3.1443    0.0000 H   0  0  0  0  0  0  0  0  0  0  0  0
   -2.1470    1.7537    0.0000 C   0  0  0  0  0  0  0  0  0 23  0  0
   -2.9499    4.2246    0.0000 H   0  0  0  0  0  0  0  0  0  0  0  0
   -1.0323    0.7500    0.0000 C   0  0  0  0  0  0  0  0  0 21  0  0
    1.2760    0.0000    0.0000 O   0  0  0  0  0  0  0  0  0  4  0  0
   -3.5736    1.2902    0.0000 H   0  0  0  0  0  0  0  0  0  0  0  0
   -1.0323   -0.7500    0.0000 O   0  0  0  0  0  0  0  0  0  3  0  0
    0.3943   -1.2135    0.0000 C   0  0  0  0  0  0  0  0  0 22  0  0
    1.6933   -1.9635    0.0000 H   0  0  0  0  0  0  0  0  0  0  0  0
   -0.2158   -2.5838    0.0000 H   0  0  0  0  0  0  0  0  0  0  0  0
    1.3299    5.6152    0.0000 H   0  0  0  0  0  0  0  0  0  0  0  0
  1  2  1  0
  1  3  2  0
  4  1  1  0
  3  5  1  0
  3  6  1  0
  7  4  2  0
  4  8  1  0
  5  9  2  0
 10  5  1  0
  9  7  1  0
  7 11  1  0
  9 12  1  0
 13 10  1  0
 12 13  1  0
 13 14  1  0
 13 15  1  0
  2 16  1  0
M  END
>  <SMILES>  (2) 
Oc1ccc2c(c1)OCO2

>  <Molecular Weight>  (2) 
138.1

>  <Substrate_ID>  (2) 
MOL0094

>  <Substrate>  (2) 


>  <Substrate_SMILES>  (2) 
Fc1ccc(C2CCNCC2COc2ccc3c(c2)OCO3)cc1

>  <Reaction>  (2) 
O-dealkylation_(aromatic)

>  <Score>  (2) 
0.1428

>  <Reaction_Score>  (2) 
0.1168

>  <Bond_Score>  (2) 
0.1746

>  <Rank>  (2) 
2

>  <Subtype>  (2) 
3A4

>  <Subtype_Scores>  (2) 
[3A4] SOM_score: 0.1746, Reaction_score: 0.1168, Score: 0.1428


$$$$

     RDKit          2D

 31 32  0  0  0  0  0  0  0  0999 V2000
    3.7981    1.9284    0.0000 O   0  0  0  0  0  0  0  0  0 25  0  0
    2.6491    0.9642    0.0000 C   0  0  0  0  0  0  0  0  0 17  0  0
    1.5000    0.0000    0.0000 C   0  0  0  0  0  0  0  0  0 16  0  0
    3.6132   -0.1849    0.0000 H   0  0  0  0  0  0  0  0  0  0  0  0
    2.2149    1.6327    0.0000 H   0  0  0  0  0  0  0  0  0  0  0  0
    0.7500   -1.2990    0.0000 C   0  0  0  0  0  0  0  0  0 15  0  0
    0.7500    1.2990    0.0000 C   0  0  0  0  0  0  0  0  0 12  0  0
    2.6491   -0.9642    0.0000 H   0  0  0  0  0  0  0  0  0  0  0  0
   -0.7500   -1.2990    0.0000 N   0  0  0  0  0  0  0  0  0  5  0  0
    2.1595   -1.8121    0.0000 H   0  0  0  0  0  0  0  0  0  0  0  0
    0.4895   -2.7762    0.0000 H   0  0  0  0  0  0  0  0  0  0  0  0
    0.4895    2.7762    0.0000 C   0  0  0  0  0  0  0  0  0  9  0  0
   -0.7500    1.2990    0.0000 C   0  0  0  0  0  0  0  0  0 13  0  0
    1.4603    1.6610    0.0000 H   0  0  0  0  0  0  0  0  0  0  0  0
   -1.5000    0.0000    0.0000 C   0  0  0  0  0  0  0  0  0 14  0  0
   -1.5000   -2.5981    0.0000 H   0  0  0  0  0  0  0  0  0  0  0  0
    1.6386    3.7404    0.0000 C   0  0  0  0  0  0  0  0  0  8  0  0
   -0.9200    3.2893    0.0000 C   0  0  0  0  0  0  0  0  0 10  0  0
   -2.2116    1.6364    0.0000 H   0  0  0  0  0  0  0  0  0  0  0  0
   -0.8547    2.7954    0.0000 H   0  0  0  0  0  0  0  0  0  0  0  0
   -2.6491   -0.9642    0.0000 H   0  0  0  0  0  0  0  0  0  0  0  0
   -2.6491    0.9642    0.0000 H   0  0  0  0  0  0  0  0  0  0  0  0
    1.3781    5.2176    0.0000 C   0  0  0  0  0  0  0  0  0  7  0  0
    3.0481    3.2274    0.0000 H   0  0  0  0  0  0  0  0  0  0  0  0
   -1.1805    4.7665    0.0000 C   0  0  0  0  0  0  0  0  0 11  0  0
   -2.1780    2.4724    0.0000 H   0  0  0  0  0  0  0  0  0  0  0  0
   -0.0314    5.7307    0.0000 C   0  0  0  0  0  0  0  0  0  6  0  0
    2.5272    6.1818    0.0000 H   0  0  0  0  0  0  0  0  0  0  0  0
   -2.5900    5.2795    0.0000 H   0  0  0  0  0  0  0  0  0  0  0  0
   -0.2919    7.2079    0.0000 F   0  0  0  0  0  0  0  0  0  1  0  0
    5.2077    1.4153    0.0000 H   0  0  0  0  0  0  0  0  0  0  0  0
  1  2  1  0
  3  2  1  0
  2  4  1  0
  2  5  1  0
  6  3  1  0
  3  7  1  0
  3  8  1  1
  9  6  1  0
  6 10  1  0
  6 11  1  0
 12  7  1  0
  7 13  1  0
  7 14  1  6
 15  9  1  0
  9 16  1  0
 17 12  2  0
 12 18  1  0
 13 15  1  0
 13 19  1  0
 13 20  1  0
 15 21  1  0
 15 22  1  0
 23 17  1  0
 17 24  1  0
 18 25  2  0
 18 26  1  0
 27 23  2  0
 23 28  1  0
 25 27  1  0
 25 29  1  0
 30 27  1  0
  1 31  1  0
M  END
>  <SMILES>  (3) 
OCC1CNCCC1c1ccc(F)cc1

>  <Molecular Weight>  (3) 
209.3

>  <Substrate_ID>  (3) 
MOL0094

>  <Substrate>  (3) 


>  <Substrate_SMILES>  (3) 
Fc1ccc(C2CCNCC2COc2ccc3c(c2)OCO3)cc1

>  <Reaction>  (3) 
O-dealkylation_(aromatic)

>  <Score>  (3) 
0.1428

>  <Reaction_Score>  (3) 
0.1168

>  <Bond_Score>  (3) 
0.1746

>  <Rank>  (3) 
2

>  <Subtype>  (3) 
3A4

>  <Subtype_Scores>  (3) 
[3A4] SOM_score: 0.1746, Reaction_score: 0.1168, Score: 0.1428


$$$$

     RDKit          2D

 45 48  0  0  0  0  0  0  0  0999 V2000
    5.0505    7.2984    0.0000 C   0  0  0  0  0  0  0  0  0 13  0  0
    4.3462    8.6229    0.0000 C   0  0  0  0  0  0  0  0  0 14  0  0
    5.7728    9.0864    0.0000 O   0  0  0  0  0  0  0  0  0 25  0  0
    2.8472    8.6752    0.0000 N   0  0  0  0  0  0  0  0  0  5  0  0
    4.2556    6.0264    0.0000 C   0  0  0  0  0  0  0  0  0 12  0  0
    6.1652    6.2947    0.0000 H   0  0  0  0  0  0  0  0  0  0  0  0
    6.2325    8.2219    0.0000 H   0  0  0  0  0  0  0  0  0  0  0  0
    3.9437    4.5591    0.0000 C   0  0  0  0  0  0  0  0  0  9  0  0
    2.7565    6.0787    0.0000 C   0  0  0  0  0  0  0  0  0 16  0  0
    5.6463    5.4645    0.0000 H   0  0  0  0  0  0  0  0  0  0  0  0
    2.5171    4.0956    0.0000 C   0  0  0  0  0  0  0  0  0  8  0  0
    5.0584    3.5554    0.0000 C   0  0  0  0  0  0  0  0  0 10  0  0
    2.0523    7.4031    0.0000 C   0  0  0  0  0  0  0  0  0 15  0  0
    1.3299    5.6152    0.0000 C   0  0  0  0  0  0  0  0  0 17  0  0
    2.6421    4.9912    0.0000 H   0  0  0  0  0  0  0  0  0  0  0  0
    2.2053    2.6284    0.0000 C   0  0  0  0  0  0  0  0  0  7  0  0
    1.8132    4.4698    0.0000 H   0  0  0  0  0  0  0  0  0  0  0  0
    4.7466    2.0882    0.0000 C   0  0  0  0  0  0  0  0  0 11  0  0
    6.4850    4.0190    0.0000 H   0  0  0  0  0  0  0  0  0  0  0  0
    0.9376    8.4068    0.0000 H   0  0  0  0  0  0  0  0  0  0  0  0
    0.7665    6.6306    0.0000 H   0  0  0  0  0  0  0  0  0  0  0  0
   -0.0967    5.1517    0.0000 O   0  0  0  0  0  0  0  0  0  2  0  0
    1.3855    4.8200    0.0000 H   0  0  0  0  0  0  0  0  0  0  0  0
    0.6959    6.9746    0.0000 H   0  0  0  0  0  0  0  0  0  0  0  0
    3.3200    1.6247    0.0000 C   0  0  0  0  0  0  0  0  0  6  0  0
    0.9332    1.8335    0.0000 H   0  0  0  0  0  0  0  0  0  0  0  0
    5.8613    1.0845    0.0000 H   0  0  0  0  0  0  0  0  0  0  0  0
   -0.4086    3.6844    0.0000 C   0  0  0  0  0  0  0  0  0 18  0  0
    3.0081    0.1575    0.0000 F   0  0  0  0  0  0  0  0  0  1  0  0
    0.7062    2.6807    0.0000 C   0  0  0  0  0  0  0  0  0 19  0  0
   -1.8351    3.2209    0.0000 C   0  0  0  0  0  0  0  0  0 24  0  0
    0.3943    1.2135    0.0000 C   0  0  0  0  0  0  0  0  0 20  0  0
    2.2025    2.7853    0.0000 H   0  0  0  0  0  0  0  0  0  0  0  0
   -2.1470    1.7537    0.0000 C   0  0  0  0  0  0  0  0  0 23  0  0
   -2.9499    4.2246    0.0000 H   0  0  0  0  0  0  0  0  0  0  0  0
   -1.0323    0.7500    0.0000 C   0  0  0  0  0  0  0  0  0 21  0  0
    1.2760    0.0000    0.0000 O   0  0  0  0  0  0  0  0  0  4  0  0
   -3.5736    1.2902    0.0000 H   0  0  0  0  0  0  0  0  0  0  0  0
   -1.0323   -0.7500    0.0000 O   0  0  0  0  0  0  0  0  0  3  0  0
    0.3943   -1.2135    0.0000 C   0  0  0  0  0  0  0  0  0 22  0  0
    1.6933   -1.9635    0.0000 H   0  0  0  0  0  0  0  0  0  0  0  0
   -0.2158   -2.5838    0.0000 H   0  0  0  0  0  0  0  0  0  0  0  0
    4.1375   10.1083    0.0000 H   0  0  0  0  0  0  0  0  0  0  0  0
    2.1429    9.9996    0.0000 H   0  0  0  0  0  0  0  0  0  0  0  0
    6.0847   10.5536    0.0000 H   0  0  0  0  0  0  0  0  0  0  0  0
  1  2  1  0
  2  3  1  0
  2  4  1  0
  5  1  1  0
  1  6  1  0
  1  7  1  0
  8  5  1  0
  9  5  1  0
  5 10  1  6
 11  8  2  0
  8 12  1  0
 13  9  1  0
  9 14  1  0
  9 15  1  1
 16 11  1  0
 11 17  1  0
 12 18  2  0
 12 19  1  0
  4 13  1  0
 13 20  1  0
 13 21  1  0
 14 22  1  0
 14 23  1  0
 14 24  1  0
 25 16  2  0
 16 26  1  0
 18 25  1  0
 18 27  1  0
 22 28  1  0
 29 25  1  0
 28 30  2  0
 31 28  1  0
 30 32  1  0
 30 33  1  0
 34 31  2  0
 31 35  1  0
 32 36  2  0
 37 32  1  0
 36 34  1  0
 34 38  1  0
 36 39  1  0
 40 37  1  0
 39 40  1  0
 40 41  1  0
 40 42  1  0
  2 43  1  0
  4 44  1  0
  3 45  1  0
M  END
>  <SMILES>  (4) 
OC1CC(c2ccc(F)cc2)C(COc2ccc3c(c2)OCO3)CN1

>  <Molecular Weight>  (4) 
345.4

>  <Substrate_ID>  (4) 
MOL0094

>  <Substrate>  (4) 


>  <Substrate_SMILES>  (4) 
Fc1ccc(C2CCNCC2COc2ccc3c(c2)OCO3)cc1

>  <Reaction>  (4) 
aliphatic_hydroxylation_(sec_carbon_next_to_SP2,in_a_ring),aliphatic hydroxylation

>  <Score>  (4) 
0.1067

>  <Reaction_Score>  (4) 
0.0929

>  <Bond_Score>  (4) 
0.1227

>  <Rank>  (4) 
3

>  <Subtype>  (4) 
3A4

>  <Subtype_Scores>  (4) 
[3A4] SOM_score: 0.1227, Reaction_score: 0.0929, Score: 0.1067


$$$$

     RDKit          2D

 43 46  0  0  0  0  0  0  0  0999 V2000
    5.0505    7.2984    0.0000 C   0  0  0  0  0  0  0  0  0 13  0  0
    4.3462    8.6229    0.0000 C   0  0  0  0  0  0  0  0  0 14  0  0
    5.1411    9.8949    0.0000 O   0  0  0  0  0  0  0  0  0 25  0  0
    2.8472    8.6752    0.0000 N   0  0  0  0  0  0  0  0  0  5  0  0
    4.2556    6.0264    0.0000 C   0  0  0  0  0  0  0  0  0 12  0  0
    6.1652    6.2947    0.0000 H   0  0  0  0  0  0  0  0  0  0  0  0
    6.2325    8.2219    0.0000 H   0  0  0  0  0  0  0  0  0  0  0  0
    3.9437    4.5591    0.0000 C   0  0  0  0  0  0  0  0  0  9  0  0
    2.7565    6.0787    0.0000 C   0  0  0  0  0  0  0  0  0 16  0  0
    5.6463    5.4645    0.0000 H   0  0  0  0  0  0  0  0  0  0  0  0
    2.5171    4.0956    0.0000 C   0  0  0  0  0  0  0  0  0  8  0  0
    5.0584    3.5554    0.0000 C   0  0  0  0  0  0  0  0  0 10  0  0
    2.0523    7.4031    0.0000 C   0  0  0  0  0  0  0  0  0 15  0  0
    1.3299    5.6152    0.0000 C   0  0  0  0  0  0  0  0  0 17  0  0
    2.6421    4.9912    0.0000 H   0  0  0  0  0  0  0  0  0  0  0  0
    2.2053    2.6284    0.0000 C   0  0  0  0  0  0  0  0  0  7  0  0
    1.8132    4.4698    0.0000 H   0  0  0  0  0  0  0  0  0  0  0  0
    4.7466    2.0882    0.0000 C   0  0  0  0  0  0  0  0  0 11  0  0
    6.4850    4.0190    0.0000 H   0  0  0  0  0  0  0  0  0  0  0  0
    0.9376    8.4068    0.0000 H   0  0  0  0  0  0  0  0  0  0  0  0
    0.7665    6.6306    0.0000 H   0  0  0  0  0  0  0  0  0  0  0  0
   -0.0967    5.1517    0.0000 O   0  0  0  0  0  0  0  0  0  2  0  0
    1.3855    4.8200    0.0000 H   0  0  0  0  0  0  0  0  0  0  0  0
    0.6959    6.9746    0.0000 H   0  0  0  0  0  0  0  0  0  0  0  0
    3.3200    1.6247    0.0000 C   0  0  0  0  0  0  0  0  0  6  0  0
    0.9332    1.8335    0.0000 H   0  0  0  0  0  0  0  0  0  0  0  0
    5.8613    1.0845    0.0000 H   0  0  0  0  0  0  0  0  0  0  0  0
   -0.4086    3.6844    0.0000 C   0  0  0  0  0  0  0  0  0 18  0  0
    3.0081    0.1575    0.0000 F   0  0  0  0  0  0  0  0  0  1  0  0
    0.7062    2.6807    0.0000 C   0  0  0  0  0  0  0  0  0 19  0  0
   -1.8351    3.2209    0.0000 C   0  0  0  0  0  0  0  0  0 24  0  0
    0.3943    1.2135    0.0000 C   0  0  0  0  0  0  0  0  0 20  0  0
    2.2025    2.7853    0.0000 H   0  0  0  0  0  0  0  0  0  0  0  0
   -2.1470    1.7537    0.0000 C   0  0  0  0  0  0  0  0  0 23  0  0
   -2.9499    4.2246    0.0000 H   0  0  0  0  0  0  0  0  0  0  0  0
   -1.0323    0.7500    0.0000 C   0  0  0  0  0  0  0  0  0 21  0  0
    1.2760    0.0000    0.0000 O   0  0  0  0  0  0  0  0  0  4  0  0
   -3.5736    1.2902    0.0000 H   0  0  0  0  0  0  0  0  0  0  0  0
   -1.0323   -0.7500    0.0000 O   0  0  0  0  0  0  0  0  0  3  0  0
    0.3943   -1.2135    0.0000 C   0  0  0  0  0  0  0  0  0 22  0  0
    1.6933   -1.9635    0.0000 H   0  0  0  0  0  0  0  0  0  0  0  0
   -0.2158   -2.5838    0.0000 H   0  0  0  0  0  0  0  0  0  0  0  0
    2.1429    9.9996    0.0000 H   0  0  0  0  0  0  0  0  0  0  0  0
  1  2  1  0
  2  3  2  0
  2  4  1  0
  5  1  1  0
  1  6  1  0
  1  7  1  0
  8  5  1  0
  9  5  1  0
  5 10  1  6
 11  8  2  0
  8 12  1  0
 13  9  1  0
  9 14  1  0
  9 15  1  1
 16 11  1  0
 11 17  1  0
 12 18  2  0
 12 19  1  0
  4 13  1  0
 13 20  1  0
 13 21  1  0
 14 22  1  0
 14 23  1  0
 14 24  1  0
 25 16  2  0
 16 26  1  0
 18 25  1  0
 18 27  1  0
 22 28  1  0
 29 25  1  0
 28 30  2  0
 31 28  1  0
 30 32  1  0
 30 33  1  0
 34 31  2  0
 31 35  1  0
 32 36  2  0
 37 32  1  0
 36 34  1  0
 34 38  1  0
 36 39  1  0
 40 37  1  0
 39 40  1  0
 40 41  1  0
 40 42  1  0
  4 43  1  0
M  END
>  <SMILES>  (5) 
O=C1CC(c2ccc(F)cc2)C(COc2ccc3c(c2)OCO3)CN1

>  <Molecular Weight>  (5) 
343.4

>  <Substrate_ID>  (5) 
MOL0094

>  <Substrate>  (5) 


>  <Substrate_SMILES>  (5) 
Fc1ccc(C2CCNCC2COc2ccc3c(c2)OCO3)cc1

>  <Reaction>  (5) 
oxidation_(amine_in_a_ring)

>  <Score>  (5) 
0.1067

>  <Reaction_Score>  (5) 
0.0929

>  <Bond_Score>  (5) 
0.1227

>  <Rank>  (5) 
3

>  <Subtype>  (5) 
3A4

>  <Subtype_Scores>  (5) 
[3A4] SOM_score: 0.1227, Reaction_score: 0.0929, Score: 0.1067


$$$$
