
     RDKit          2D

 26 26  0  0  0  0  0  0  0  0999 V2000
    4.5000    0.0000    0.0000 C   0  0  0  0  0  0  0  0  0 25  0  0
    6.0000    0.0000    0.0000 N   0  0  0  0  0  0  0  0  0  8  0  0
    3.0000    0.0000    0.0000 C   0  0  0  0  0  0  0  0  0 32  0  0
    4.6828   -1.4888    0.0000 H   0  0  0  0  0  0  0  0  0  0  0  0
    4.5000    1.5000    0.0000 H   0  0  0  0  0  0  0  0  0  0  0  0
    3.0000   -1.5000    0.0000 O   0  0  0  0  0  0  0  0  0  5  0  0
    1.5000    0.0000    0.0000 C   0  0  0  0  0  0  0  0  0 26  0  0
    3.0000    1.5000    0.0000 H   0  0  0  0  0  0  0  0  0  0  0  0
    4.1979   -2.4028    0.0000 H   0  0  0  0  0  0  0  0  0  0  0  0
    0.7500   -1.2990    0.0000 C   0  0  0  0  0  0  0  0  0 10  0  0
    0.7500    1.2990    0.0000 C   0  0  0  0  0  0  0  0  0 14  0  0
   -0.7500   -1.2990    0.0000 C   0  0  0  0  0  0  0  0  0 11  0  0
    1.5000   -2.5981    0.0000 H   0  0  0  0  0  0  0  0  0  0  0  0
   -0.7500    1.2990    0.0000 C   0  0  0  0  0  0  0  0  0 30  0  0
    1.5000    2.5981    0.0000 H   0  0  0  0  0  0  0  0  0  0  0  0
   -1.5000    0.0000    0.0000 C   0  0  0  0  0  0  0  0  0 27  0  0
   -1.5000   -2.5981    0.0000 H   0  0  0  0  0  0  0  0  0  0  0  0
   -1.5000    2.5981    0.0000 C   0  0  0  0  0  0  0  0  0 23  0  0
   -3.0000    0.0000    0.0000 O   0  0  0  0  0  0  0  0  0  4  0  0
   -2.2500    3.8971    0.0000 O   0  0  0  0  0  0  0  0  0  3  0  0
   -2.7990    1.8481    0.0000 H   0  0  0  0  0  0  0  0  0  0  0  0
   -0.2010    3.3481    0.0000 H   0  0  0  0  0  0  0  0  0  0  0  0
   -3.7500    1.2990    0.0000 H   0  0  0  0  0  0  0  0  0  0  0  0
   -1.5000    5.1962    0.0000 H   0  0  0  0  0  0  0  0  0  0  0  0
    6.7500    1.2990    0.0000 H   0  0  0  0  0  0  0  0  0  0  0  0
    6.7500   -1.2990    0.0000 H   0  0  0  0  0  0  0  0  0  0  0  0
  1  2  1  0
  1  3  1  0
  1  4  1  0
  1  5  1  0
  3  6  1  0
  3  7  1  0
  3  8  1  1
  6  9  1  0
  7 10  2  0
 11  7  1  0
 10 12  1  0
 10 13  1  0
 14 11  2  0
 11 15  1  0
 12 16  2  0
 12 17  1  0
 16 14  1  0
 14 18  1  0
 16 19  1  0
 18 20  1  0
 18 21  1  0
 18 22  1  0
 19 23  1  0
 20 24  1  0
  2 25  1  0
  2 26  1  0
M  END
>  <SMILES>  (1) 
NCC(O)c1ccc(O)c(CO)c1

>  <Molecular Weight>  (1) 
183.2

>  <Substrate_ID>  (1) 
MOL0047

>  <Substrate>  (1) 


>  <Substrate_SMILES>  (1) 
OCc1cc(C(O)CNCCCCCCOCCOCc2c(Cl)cccc2Cl)ccc1O

>  <Reaction>  (1) 
N-dealkylation_(R-NHCH2-alkyl)

>  <Score>  (1) 
0.2979

>  <Reaction_Score>  (1) 
0.279

>  <Bond_Score>  (1) 
0.318

>  <Rank>  (1) 
1

>  <Subtype>  (1) 
2C8, 3A4

>  <Subtype_Scores>  (1) 
[2C8] SOM_score: 0.0930, Reaction_score: 0.2790, Score: 0.1611
[3A4] SOM_score: 0.3180, Reaction_score: 0.2790, Score: 0.2979


$$$$

     RDKit          2D

 42 42  0  0  0  0  0  0  0  0999 V2000
   17.2500    3.8971    0.0000 O   0  0  0  0  0  0  0  0  0 33  0  0
   15.7500    3.8971    0.0000 C   0  0  0  0  0  0  0  0  0 19  0  0
   14.2500    3.8971    0.0000 C   0  0  0  0  0  0  0  0  0 17  0  0
   15.7500    2.3971    0.0000 H   0  0  0  0  0  0  0  0  0  0  0  0
   15.7500    5.3971    0.0000 H   0  0  0  0  0  0  0  0  0  0  0  0
   12.7500    3.8971    0.0000 C   0  0  0  0  0  0  0  0  0 15  0  0
   14.2500    2.3971    0.0000 H   0  0  0  0  0  0  0  0  0  0  0  0
   14.2500    5.3971    0.0000 H   0  0  0  0  0  0  0  0  0  0  0  0
   11.2500    3.8971    0.0000 C   0  0  0  0  0  0  0  0  0 16  0  0
   12.7500    5.3971    0.0000 H   0  0  0  0  0  0  0  0  0  0  0  0
   12.7500    2.3971    0.0000 H   0  0  0  0  0  0  0  0  0  0  0  0
    9.7500    3.8971    0.0000 C   0  0  0  0  0  0  0  0  0 18  0  0
   11.2500    2.3971    0.0000 H   0  0  0  0  0  0  0  0  0  0  0  0
   11.2500    5.3971    0.0000 H   0  0  0  0  0  0  0  0  0  0  0  0
    8.2500    3.8971    0.0000 C   0  0  0  0  0  0  0  0  0 20  0  0
    9.7500    5.3971    0.0000 H   0  0  0  0  0  0  0  0  0  0  0  0
    9.7500    2.3971    0.0000 H   0  0  0  0  0  0  0  0  0  0  0  0
    6.7500    3.8971    0.0000 O   0  0  0  0  0  0  0  0  0  6  0  0
    8.2500    2.3971    0.0000 H   0  0  0  0  0  0  0  0  0  0  0  0
    8.2500    5.3971    0.0000 H   0  0  0  0  0  0  0  0  0  0  0  0
    6.0000    2.5981    0.0000 C   0  0  0  0  0  0  0  0  0 21  0  0
    5.2500    1.2990    0.0000 C   0  0  0  0  0  0  0  0  0 22  0  0
    4.7010    3.3481    0.0000 H   0  0  0  0  0  0  0  0  0  0  0  0
    7.2990    1.8481    0.0000 H   0  0  0  0  0  0  0  0  0  0  0  0
    4.5000    0.0000    0.0000 O   0  0  0  0  0  0  0  0  0  7  0  0
    3.9510    2.0490    0.0000 H   0  0  0  0  0  0  0  0  0  0  0  0
    6.5490    0.5490    0.0000 H   0  0  0  0  0  0  0  0  0  0  0  0
    3.0000    0.0000    0.0000 C   0  0  0  0  0  0  0  0  0 24  0  0
    1.5000    0.0000    0.0000 C   0  0  0  0  0  0  0  0  0 31  0  0
    3.0000   -1.5000    0.0000 H   0  0  0  0  0  0  0  0  0  0  0  0
    3.0000    1.5000    0.0000 H   0  0  0  0  0  0  0  0  0  0  0  0
    0.7500   -1.2990    0.0000 C   0  0  0  0  0  0  0  0  0 29  0  0
    0.7500    1.2990    0.0000 C   0  0  0  0  0  0  0  0  0 28  0  0
   -0.7500   -1.2990    0.0000 C   0  0  0  0  0  0  0  0  0 13  0  0
    1.5000   -2.5981    0.0000 Cl  0  0  0  0  0  0  0  0  0  2  0  0
    1.5000    2.5981    0.0000 Cl  0  0  0  0  0  0  0  0  0  1  0  0
   -0.7500    1.2990    0.0000 C   0  0  0  0  0  0  0  0  0 12  0  0
   -1.5000    0.0000    0.0000 C   0  0  0  0  0  0  0  0  0  9  0  0
   -1.5000   -2.5981    0.0000 H   0  0  0  0  0  0  0  0  0  0  0  0
   -1.5000    2.5981    0.0000 H   0  0  0  0  0  0  0  0  0  0  0  0
   -3.0000    0.0000    0.0000 H   0  0  0  0  0  0  0  0  0  0  0  0
   18.0000    5.1962    0.0000 H   0  0  0  0  0  0  0  0  0  0  0  0
  1  2  1  0
  2  3  1  0
  2  4  1  0
  2  5  1  0
  6  3  1  0
  3  7  1  0
  3  8  1  0
  9  6  1  0
  6 10  1  0
  6 11  1  0
 12  9  1  0
  9 13  1  0
  9 14  1  0
 15 12  1  0
 12 16  1  0
 12 17  1  0
 18 15  1  0
 15 19  1  0
 15 20  1  0
 21 18  1  0
 22 21  1  0
 21 23  1  0
 21 24  1  0
 25 22  1  0
 22 26  1  0
 22 27  1  0
 28 25  1  0
 29 28  1  0
 28 30  1  0
 28 31  1  0
 32 29  2  0
 29 33  1  0
 34 32  1  0
 32 35  1  0
 36 33  1  0
 33 37  2  0
 38 34  2  0
 34 39  1  0
 37 38  1  0
 37 40  1  0
 38 41  1  0
  1 42  1  0
M  END
>  <SMILES>  (2) 
OCCCCCCOCCOCc1c(Cl)cccc1Cl

>  <Molecular Weight>  (2) 
321.2

>  <Substrate_ID>  (2) 
MOL0047

>  <Substrate>  (2) 


>  <Substrate_SMILES>  (2) 
OCc1cc(C(O)CNCCCCCCOCCOCc2c(Cl)cccc2Cl)ccc1O

>  <Reaction>  (2) 
N-dealkylation_(R-NHCH2-alkyl)

>  <Score>  (2) 
0.2979

>  <Reaction_Score>  (2) 
0.279

>  <Bond_Score>  (2) 
0.318

>  <Rank>  (2) 
1

>  <Subtype>  (2) 
2C8, 3A4

>  <Subtype_Scores>  (2) 
[2C8] SOM_score: 0.0930, Reaction_score: 0.2790, Score: 0.1611
[3A4] SOM_score: 0.3180, Reaction_score: 0.2790, Score: 0.2979


$$$$
