
     RDKit          2D

 41 43  0  0  0  0  0  0  0  0999 V2000
    0.3943    1.2135    0.0000 N   0  0  0  0  0  0  0  0  0  8  0  0
   -1.0323    0.7500    0.0000 C   0  0  0  0  0  0  0  0  0 22  0  0
   -1.0323   -0.7500    0.0000 C   0  0  0  0  0  0  0  0  0 21  0  0
   -2.3313   -1.5000    0.0000 C   0  0  0  0  0  0  0  0  0 14  0  0
   -3.6304   -0.7500    0.0000 C   0  0  0  0  0  0  0  0  0 10  0  0
   -4.9294   -1.5000    0.0000 O   0  0  0  0  0  0  0  0  0 25  0  0
   -3.6304    0.7500    0.0000 C   0  0  0  0  0  0  0  0  0 11  0  0
   -2.3313    1.5000    0.0000 C   0  0  0  0  0  0  0  0  0 15  0  0
    0.8578    2.6401    0.0000 N   0  0  0  0  0  0  0  0  0  7  0  0
    1.2760    0.0000    0.0000 C   0  0  0  0  0  0  0  0  0 24  0  0
   -0.1459    3.7548    0.0000 C   0  0  0  0  0  0  0  0  0 18  0  0
    2.3250    2.9520    0.0000 H   0  0  0  0  0  0  0  0  0  0  0  0
    0.3943   -1.2135    0.0000 C   0  0  0  0  0  0  0  0  0 17  0  0
    2.3907    1.0037    0.0000 C   0  0  0  0  0  0  0  0  0  9  0  0
    2.3907   -1.0037    0.0000 H   0  0  0  0  0  0  0  0  0  0  0  0
    0.3177    5.1814    0.0000 C   0  0  0  0  0  0  0  0  0 19  0  0
   -1.6402    3.6241    0.0000 O   0  0  0  0  0  0  0  0  0  3  0  0
    1.6933   -1.9635    0.0000 H   0  0  0  0  0  0  0  0  0  0  0  0
   -0.2158   -2.5838    0.0000 H   0  0  0  0  0  0  0  0  0  0  0  0
    3.5054    2.0074    0.0000 H   0  0  0  0  0  0  0  0  0  0  0  0
    3.3944   -0.1110    0.0000 H   0  0  0  0  0  0  0  0  0  0  0  0
    1.7570    2.1957    0.0000 H   0  0  0  0  0  0  0  0  0  0  0  0
   -0.6860    6.2961    0.0000 C   0  0  0  0  0  0  0  0  0 12  0  0
    1.7849    5.4933    0.0000 C   0  0  0  0  0  0  0  0  0 16  0  0
   -0.2225    7.7227    0.0000 C   0  0  0  0  0  0  0  0  0 13  0  0
   -2.1533    5.9843    0.0000 H   0  0  0  0  0  0  0  0  0  0  0  0
    2.2484    6.9199    0.0000 C   0  0  0  0  0  0  0  0  0 23  0  0
    2.7886    4.3786    0.0000 H   0  0  0  0  0  0  0  0  0  0  0  0
    1.2447    8.0346    0.0000 C   0  0  0  0  0  0  0  0  0 20  0  0
   -1.2262    8.8374    0.0000 H   0  0  0  0  0  0  0  0  0  0  0  0
    3.7156    7.2317    0.0000 S   0  0  0  0  0  6  0  0  0  2  0  0
    1.7082    9.4612    0.0000 Cl  0  0  0  0  0  0  0  0  0  1  0  0
    3.4038    8.6990    0.0000 O   0  0  0  0  0  0  0  0  0  4  0  0
    4.0275    5.7645    0.0000 O   0  0  0  0  0  0  0  0  0  5  0  0
    5.1828    7.5436    0.0000 N   0  0  0  0  0  0  0  0  0  6  0  0
    6.1865    6.4289    0.0000 H   0  0  0  0  0  0  0  0  0  0  0  0
    5.6464    8.9702    0.0000 H   0  0  0  0  0  0  0  0  0  0  0  0
   -2.3313   -3.0000    0.0000 H   0  0  0  0  0  0  0  0  0  0  0  0
   -4.9294    1.5000    0.0000 H   0  0  0  0  0  0  0  0  0  0  0  0
   -2.5142    2.9888    0.0000 H   0  0  0  0  0  0  0  0  0  0  0  0
   -6.2284   -0.7500    0.0000 H   0  0  0  0  0  0  0  0  0  0  0  0
  1  2  1  0
  2  3  1  0
  3  4  2  0
  4  5  1  0
  5  6  1  0
  5  7  2  0
  7  8  1  0
  8  2  2  0
  9  1  1  0
 10  1  1  0
 11  9  1  0
  9 12  1  0
 13 10  1  0
 10 14  1  0
 10 15  1  1
 16 11  1  0
 11 17  2  0
  3 13  1  0
 13 18  1  0
 13 19  1  0
 14 20  1  0
 14 21  1  0
 14 22  1  0
 23 16  2  0
 16 24  1  0
 25 23  1  0
 23 26  1  0
 24 27  2  0
 24 28  1  0
 29 25  2  0
 25 30  1  0
 27 31  1  0
 27 29  1  0
 32 29  1  0
 31 33  2  0
 31 34  2  0
 31 35  1  0
 35 36  1  0
 35 37  1  0
  4 38  1  0
  7 39  1  0
  8 40  1  0
  6 41  1  0
M  END
>  <SMILES>  (1) 
CC1Cc2cc(O)ccc2N1NC(=O)c1ccc(Cl)c(S(N)(=O)=O)c1

>  <Molecular Weight>  (1) 
381.8

>  <Substrate_ID>  (1) 
MOL0054

>  <Substrate>  (1) 


>  <Substrate_SMILES>  (1) 
CC1Cc2ccccc2N1NC(=O)c1ccc(Cl)c(S(N)(=O)=O)c1

>  <Reaction>  (1) 
aromatic_hydroxylation_(para_to_nitrogen),aromatic hydroxylation

>  <Score>  (1) 
0.3156

>  <Reaction_Score>  (1) 
0.355

>  <Bond_Score>  (1) 
0.2805

>  <Rank>  (1) 
1

>  <Subtype>  (1) 
1A2, 2C8, 2C9, 2C19, 3A4

>  <Subtype_Scores>  (1) 
[1A2] SOM_score: 0.2624, Reaction_score: 0.3550, Score: 0.3052
[2C8] SOM_score: 0.1877, Reaction_score: 0.3550, Score: 0.2581
[2C9] SOM_score: 0.2805, Reaction_score: 0.3550, Score: 0.3156
[2C19] SOM_score: 0.2384, Reaction_score: 0.3550, Score: 0.2909
[3A4] SOM_score: 0.2373, Reaction_score: 0.3550, Score: 0.2903


$$$$

     RDKit          2D

 41 43  0  0  0  0  0  0  0  0999 V2000
    1.2760    0.0000    0.0000 C   0  0  0  0  0  0  0  0  0 17  0  0
    0.3943    1.2135    0.0000 C   0  0  0  0  0  0  0  0  0 21  0  0
   -1.0323    0.7500    0.0000 C   0  0  0  0  0  0  0  0  0 22  0  0
   -2.1470    1.7537    0.0000 C   0  0  0  0  0  0  0  0  0 15  0  0
   -1.8351    3.2209    0.0000 C   0  0  0  0  0  0  0  0  0 11  0  0
   -2.9499    4.2246    0.0000 O   0  0  0  0  0  0  0  0  0 25  0  0
   -0.4086    3.6844    0.0000 C   0  0  0  0  0  0  0  0  0 10  0  0
    0.7062    2.6807    0.0000 C   0  0  0  0  0  0  0  0  0 14  0  0
    0.3943   -1.2135    0.0000 C   0  0  0  0  0  0  0  0  0 24  0  0
    2.3907    1.0037    0.0000 H   0  0  0  0  0  0  0  0  0  0  0  0
    1.9290   -0.4572    0.0000 H   0  0  0  0  0  0  0  0  0  0  0  0
    1.6933   -1.9635    0.0000 C   0  0  0  0  0  0  0  0  0  9  0  0
   -1.0323   -0.7500    0.0000 N   0  0  0  0  0  0  0  0  0  8  0  0
   -0.2158   -2.5838    0.0000 H   0  0  0  0  0  0  0  0  0  0  0  0
    2.9924   -2.7135    0.0000 H   0  0  0  0  0  0  0  0  0  0  0  0
    2.1731   -1.3269    0.0000 H   0  0  0  0  0  0  0  0  0  0  0  0
    0.9433   -3.2626    0.0000 H   0  0  0  0  0  0  0  0  0  0  0  0
   -2.2458   -1.6317    0.0000 N   0  0  0  0  0  0  0  0  0  7  0  0
   -2.0890   -3.1235    0.0000 C   0  0  0  0  0  0  0  0  0 18  0  0
   -3.6161   -1.0216    0.0000 H   0  0  0  0  0  0  0  0  0  0  0  0
   -3.3025   -4.0051    0.0000 C   0  0  0  0  0  0  0  0  0 19  0  0
   -0.7187   -3.7336    0.0000 O   0  0  0  0  0  0  0  0  0  3  0  0
   -4.6729   -3.3950    0.0000 C   0  0  0  0  0  0  0  0  0 12  0  0
   -3.1458   -5.4969    0.0000 C   0  0  0  0  0  0  0  0  0 16  0  0
   -5.8864   -4.2767    0.0000 C   0  0  0  0  0  0  0  0  0 13  0  0
   -4.8297   -1.9033    0.0000 H   0  0  0  0  0  0  0  0  0  0  0  0
   -4.3593   -6.3786    0.0000 C   0  0  0  0  0  0  0  0  0 23  0  0
   -1.7754   -6.1070    0.0000 H   0  0  0  0  0  0  0  0  0  0  0  0
   -5.7296   -5.7685    0.0000 C   0  0  0  0  0  0  0  0  0 20  0  0
   -7.2567   -3.6666    0.0000 H   0  0  0  0  0  0  0  0  0  0  0  0
   -4.2025   -7.8704    0.0000 S   0  0  0  0  0  6  0  0  0  2  0  0
   -6.9431   -6.6502    0.0000 Cl  0  0  0  0  0  0  0  0  0  1  0  0
   -5.6943   -8.0272    0.0000 O   0  0  0  0  0  0  0  0  0  4  0  0
   -2.7107   -7.7136    0.0000 O   0  0  0  0  0  0  0  0  0  5  0  0
   -4.0457   -9.3622    0.0000 N   0  0  0  0  0  0  0  0  0  6  0  0
   -2.6754   -9.9723    0.0000 H   0  0  0  0  0  0  0  0  0  0  0  0
   -5.2592  -10.2438    0.0000 H   0  0  0  0  0  0  0  0  0  0  0  0
   -3.5736    1.2902    0.0000 H   0  0  0  0  0  0  0  0  0  0  0  0
   -0.0967    5.1517    0.0000 H   0  0  0  0  0  0  0  0  0  0  0  0
    2.1328    3.1443    0.0000 H   0  0  0  0  0  0  0  0  0  0  0  0
   -2.6380    5.6918    0.0000 H   0  0  0  0  0  0  0  0  0  0  0  0
  1  2  1  0
  2  3  2  0
  3  4  1  0
  4  5  2  0
  5  6  1  0
  5  7  1  0
  7  8  2  0
  8  2  1  0
  1  9  1  0
  1 10  1  0
  1 11  1  0
  9 12  1  0
  9 13  1  0
  9 14  1  6
 12 15  1  0
 12 16  1  0
 12 17  1  0
 18 13  1  0
 13  3  1  0
 19 18  1  0
 18 20  1  0
 21 19  1  0
 19 22  2  0
 23 21  2  0
 21 24  1  0
 25 23  1  0
 23 26  1  0
 24 27  2  0
 24 28  1  0
 29 25  2  0
 25 30  1  0
 27 31  1  0
 27 29  1  0
 32 29  1  0
 31 33  2  0
 31 34  2  0
 31 35  1  0
 35 36  1  0
 35 37  1  0
  4 38  1  0
  7 39  1  0
  8 40  1  0
  6 41  1  0
M  END
>  <SMILES>  (2) 
CC1Cc2ccc(O)cc2N1NC(=O)c1ccc(Cl)c(S(N)(=O)=O)c1

>  <Molecular Weight>  (2) 
381.8

>  <Substrate_ID>  (2) 
MOL0054

>  <Substrate>  (2) 


>  <Substrate_SMILES>  (2) 
CC1Cc2ccccc2N1NC(=O)c1ccc(Cl)c(S(N)(=O)=O)c1

>  <Reaction>  (2) 
aromatic_hydroxylation_(para_to_carbon),aromatic hydroxylation

>  <Score>  (2) 
0.259

>  <Reaction_Score>  (2) 
0.3109

>  <Bond_Score>  (2) 
0.2159

>  <Rank>  (2) 
2

>  <Subtype>  (2) 
1A2, 2C8, 2C9, 2C19, 3A4

>  <Subtype_Scores>  (2) 
[1A2] SOM_score: 0.2080, Reaction_score: 0.3109, Score: 0.2543
[2C8] SOM_score: 0.1471, Reaction_score: 0.3109, Score: 0.2138
[2C9] SOM_score: 0.2159, Reaction_score: 0.3109, Score: 0.2590
[2C19] SOM_score: 0.1764, Reaction_score: 0.3109, Score: 0.2342
[3A4] SOM_score: 0.2048, Reaction_score: 0.3109, Score: 0.2523


$$$$

     RDKit          2D

 41 43  0  0  0  0  0  0  0  0999 V2000
    0.3943    1.2135    0.0000 C   0  0  0  0  0  0  0  0  0 21  0  0
    1.2760    0.0000    0.0000 C   0  0  0  0  0  0  0  0  0 17  0  0
    2.3907   -1.0037    0.0000 O   0  0  0  0  0  0  0  0  0 25  0  0
    0.3943   -1.2135    0.0000 C   0  0  0  0  0  0  0  0  0 24  0  0
    0.7062    2.6807    0.0000 C   0  0  0  0  0  0  0  0  0 14  0  0
   -1.0323    0.7500    0.0000 C   0  0  0  0  0  0  0  0  0 22  0  0
   -0.4086    3.6844    0.0000 C   0  0  0  0  0  0  0  0  0 10  0  0
    2.1328    3.1443    0.0000 H   0  0  0  0  0  0  0  0  0  0  0  0
   -1.0323   -0.7500    0.0000 N   0  0  0  0  0  0  0  0  0  8  0  0
   -2.1470    1.7537    0.0000 C   0  0  0  0  0  0  0  0  0 15  0  0
   -1.8351    3.2209    0.0000 C   0  0  0  0  0  0  0  0  0 11  0  0
   -0.0967    5.1517    0.0000 H   0  0  0  0  0  0  0  0  0  0  0  0
   -2.2458   -1.6317    0.0000 N   0  0  0  0  0  0  0  0  0  7  0  0
   -3.6195    1.4675    0.0000 H   0  0  0  0  0  0  0  0  0  0  0  0
   -2.9499    4.2246    0.0000 H   0  0  0  0  0  0  0  0  0  0  0  0
   -3.6161   -1.0216    0.0000 C   0  0  0  0  0  0  0  0  0 18  0  0
   -2.0890   -3.1235    0.0000 H   0  0  0  0  0  0  0  0  0  0  0  0
   -4.8297   -1.9033    0.0000 C   0  0  0  0  0  0  0  0  0 19  0  0
   -3.9536    0.4400    0.0000 O   0  0  0  0  0  0  0  0  0  3  0  0
   -6.2000   -1.2931    0.0000 C   0  0  0  0  0  0  0  0  0 12  0  0
   -4.6729   -3.3950    0.0000 C   0  0  0  0  0  0  0  0  0 16  0  0
   -7.4135   -2.1748    0.0000 C   0  0  0  0  0  0  0  0  0 13  0  0
   -6.3568    0.1986    0.0000 H   0  0  0  0  0  0  0  0  0  0  0  0
   -5.8864   -4.2767    0.0000 C   0  0  0  0  0  0  0  0  0 23  0  0
   -3.3025   -4.0051    0.0000 H   0  0  0  0  0  0  0  0  0  0  0  0
   -7.2567   -3.6666    0.0000 C   0  0  0  0  0  0  0  0  0 20  0  0
   -8.7838   -1.5647    0.0000 H   0  0  0  0  0  0  0  0  0  0  0  0
   -5.7296   -5.7685    0.0000 S   0  0  0  0  0  6  0  0  0  2  0  0
   -8.4702   -4.5483    0.0000 Cl  0  0  0  0  0  0  0  0  0  1  0  0
   -7.2214   -5.9253    0.0000 O   0  0  0  0  0  0  0  0  0  4  0  0
   -4.2378   -5.6117    0.0000 O   0  0  0  0  0  0  0  0  0  5  0  0
   -5.5728   -7.2603    0.0000 N   0  0  0  0  0  0  0  0  0  6  0  0
   -4.2025   -7.8704    0.0000 H   0  0  0  0  0  0  0  0  0  0  0  0
   -6.7863   -8.1420    0.0000 H   0  0  0  0  0  0  0  0  0  0  0  0
    2.3907    1.0037    0.0000 H   0  0  0  0  0  0  0  0  0  0  0  0
   -0.2158   -2.5838    0.0000 C   0  0  0  0  0  0  0  0  0  9  0  0
    1.3646   -1.9448    0.0000 H   0  0  0  0  0  0  0  0  0  0  0  0
   -1.5453   -2.3495    0.0000 H   0  0  0  0  0  0  0  0  0  0  0  0
    1.1545   -3.1939    0.0000 H   0  0  0  0  0  0  0  0  0  0  0  0
   -0.8259   -3.9542    0.0000 H   0  0  0  0  0  0  0  0  0  0  0  0
    2.2848   -2.2141    0.0000 H   0  0  0  0  0  0  0  0  0  0  0  0
  1  2  1  0
  2  3  1  0
  2  4  1  0
  5  1  2  0
  1  6  1  0
  7  5  1  0
  5  8  1  0
  9  6  1  0
  6 10  2  0
 11  7  2  0
  7 12  1  0
 13  9  1  0
  4  9  1  0
 10 11  1  0
 10 14  1  0
 11 15  1  0
 16 13  1  0
 13 17  1  0
 18 16  1  0
 16 19  2  0
 20 18  2  0
 18 21  1  0
 22 20  1  0
 20 23  1  0
 21 24  2  0
 21 25  1  0
 26 22  2  0
 22 27  1  0
 24 28  1  0
 24 26  1  0
 29 26  1  0
 28 30  2  0
 28 31  2  0
 28 32  1  0
 32 33  1  0
 32 34  1  0
  2 35  1  0
  4 36  1  0
  4 37  1  6
 36 38  1  0
 36 39  1  0
 36 40  1  0
  3 41  1  0
M  END
>  <SMILES>  (3) 
CC1C(O)c2ccccc2N1NC(=O)c1ccc(Cl)c(S(N)(=O)=O)c1

>  <Molecular Weight>  (3) 
381.8

>  <Substrate_ID>  (3) 
MOL0054

>  <Substrate>  (3) 


>  <Substrate_SMILES>  (3) 
CC1Cc2ccccc2N1NC(=O)c1ccc(Cl)c(S(N)(=O)=O)c1

>  <Reaction>  (3) 
benzylic_hydroxylation_(c-CH2-CR),aliphatic hydroxylation

>  <Score>  (3) 
0.1293

>  <Reaction_Score>  (3) 
0.1145

>  <Bond_Score>  (3) 
0.146

>  <Rank>  (3) 
3

>  <Subtype>  (3) 
3A4

>  <Subtype_Scores>  (3) 
[3A4] SOM_score: 0.1460, Reaction_score: 0.1145, Score: 0.1293


$$$$
