
     RDKit          2D

  8  8  0  0  0  0  0  0  0  0999 V2000
    1.2760    0.0000    0.0000 N   0  0  0  0  0  0  0  0  0  1  0  0
    2.7760    0.0000    0.0000 H   0  0  0  0  0  0  0  0  0  0  0  0
    0.3943    1.2135    0.0000 N   0  0  0  0  0  0  0  0  0  2  0  0
    0.3943   -1.2135    0.0000 C   0  0  0  0  0  0  0  0  0 13  0  0
   -1.0323    0.7500    0.0000 C   0  0  0  0  0  0  0  0  0 20  0  0
   -1.0323   -0.7500    0.0000 N   0  0  0  0  0  0  0  0  0  3  0  0
    0.8578   -2.6401    0.0000 H   0  0  0  0  0  0  0  0  0  0  0  0
   -2.2458    1.6317    0.0000 H   0  0  0  0  0  0  0  0  0  0  0  0
  1  2  1  0
  1  3  1  0
  4  1  1  0
  3  5  2  0
  6  4  2  0
  4  7  1  0
  5  6  1  0
  5  8  1  0
M  END
>  <SMILES>  (1) 
c1nc[nH]n1

>  <Molecular Weight>  (1) 
69.1

>  <Substrate_ID>  (1) 
MOL0083

>  <Substrate>  (1) 


>  <Substrate_SMILES>  (1) 
N#Cc1ccc(C(c2ccc(C#N)cc2)n2cncn2)cc1

>  <Reaction>  (1) 
N-dealkylation_(hetero_ring),N-dealkylation_(hetero_ring2)

>  <Score>  (1) 
0.1044

>  <Reaction_Score>  (1) 
0.084

>  <Bond_Score>  (1) 
0.1297

>  <Rank>  (1) 
1

>  <Subtype>  (1) 
3A4

>  <Subtype_Scores>  (1) 
[3A4] SOM_score: 0.1297, Reaction_score: 0.0840, Score: 0.1044


$$$$

     RDKit          2D

 26 27  0  0  0  0  0  0  0  0999 V2000
    1.5000   -2.5981    0.0000 C   0  0  0  0  0  0  0  0  0  6  0  0
    3.0000   -2.5981    0.0000 O   0  0  0  0  0  0  0  0  0 23  0  0
    0.7500   -1.2990    0.0000 C   0  0  0  0  0  0  0  0  0  7  0  0
    0.7500   -3.8971    0.0000 C   0  0  0  0  0  0  0  0  0  8  0  0
    1.5000    0.0000    0.0000 C   0  0  0  0  0  0  0  0  0  9  0  0
   -0.7500   -1.2990    0.0000 C   0  0  0  0  0  0  0  0  0 11  0  0
   -0.7500   -3.8971    0.0000 C   0  0  0  0  0  0  0  0  0 10  0  0
    1.5000   -5.1962    0.0000 C   0  0  0  0  0  0  0  0  0 12  0  0
    0.7500    1.2990    0.0000 C   0  0  0  0  0  0  0  0  0 14  0  0
    3.0000    0.0000    0.0000 H   0  0  0  0  0  0  0  0  0  0  0  0
   -1.5000   -0.0000    0.0000 C   0  0  0  0  0  0  0  0  0 16  0  0
   -1.3423   -2.0850    0.0000 H   0  0  0  0  0  0  0  0  0  0  0  0
   -1.5000   -5.1962    0.0000 C   0  0  0  0  0  0  0  0  0 15  0  0
   -1.3423   -3.1112    0.0000 H   0  0  0  0  0  0  0  0  0  0  0  0
    0.7500   -6.4952    0.0000 C   0  0  0  0  0  0  0  0  0 17  0  0
    3.0000   -5.1962    0.0000 H   0  0  0  0  0  0  0  0  0  0  0  0
   -0.7500    1.2990    0.0000 C   0  0  0  0  0  0  0  0  0 18  0  0
    1.5000    2.5981    0.0000 H   0  0  0  0  0  0  0  0  0  0  0  0
   -3.0000   -0.0000    0.0000 H   0  0  0  0  0  0  0  0  0  0  0  0
   -0.7500   -6.4952    0.0000 C   0  0  0  0  0  0  0  0  0 19  0  0
   -3.0000   -5.1962    0.0000 H   0  0  0  0  0  0  0  0  0  0  0  0
    1.5000   -7.7942    0.0000 H   0  0  0  0  0  0  0  0  0  0  0  0
   -1.5000    2.5981    0.0000 C   0  0  0  0  0  0  0  0  0 21  0  0
   -1.5000   -7.7942    0.0000 C   0  0  0  0  0  0  0  0  0 22  0  0
   -2.2500    3.8971    0.0000 N   0  0  0  0  0  0  0  0  0  4  0  0
   -2.2500   -9.0933    0.0000 N   0  0  0  0  0  0  0  0  0  5  0  0
  1  2  2  0
  1  3  1  0
  1  4  1  0
  3  5  2  0
  6  3  1  0
  4  7  2  0
  8  4  1  0
  5  9  1  0
  5 10  1  0
 11  6  2  0
  6 12  1  0
  7 13  1  0
  7 14  1  0
 15  8  2  0
  8 16  1  0
  9 17  2  0
  9 18  1  0
 17 11  1  0
 11 19  1  0
 13 20  2  0
 13 21  1  0
 20 15  1  0
 15 22  1  0
 17 23  1  0
 20 24  1  0
 23 25  3  0
 24 26  3  0
M  END
>  <SMILES>  (2) 
N#Cc1ccc(C(=O)c2ccc(C#N)cc2)cc1

>  <Molecular Weight>  (2) 
232.2

>  <Substrate_ID>  (2) 
MOL0083

>  <Substrate>  (2) 


>  <Substrate_SMILES>  (2) 
N#Cc1ccc(C(c2ccc(C#N)cc2)n2cncn2)cc1

>  <Reaction>  (2) 
N-dealkylation_(hetero_ring),N-dealkylation_(hetero_ring2)

>  <Score>  (2) 
0.1044

>  <Reaction_Score>  (2) 
0.084

>  <Bond_Score>  (2) 
0.1297

>  <Rank>  (2) 
1

>  <Subtype>  (2) 
3A4

>  <Subtype_Scores>  (2) 
[3A4] SOM_score: 0.1297, Reaction_score: 0.0840, Score: 0.1044


$$$$

     RDKit          2D

 34 36  0  0  0  0  0  0  0  0999 V2000
   -2.1731   -3.8527    0.0000 C   0  0  0  0  0  0  0  0  0 20  0  0
   -1.4231   -5.1517    0.0000 N   0  0  0  0  0  4  0  0  0  3  0  0
    0.0442   -4.8399    0.0000 C   0  0  0  0  0  0  0  0  0 13  0  0
   -2.0332   -6.5220    0.0000 O   0  0  0  0  0  1  0  0  0 23  0  0
   -1.1694   -2.7380    0.0000 N   0  0  0  0  0  0  0  0  0  2  0  0
   -3.6648   -3.6959    0.0000 H   0  0  0  0  0  0  0  0  0  0  0  0
    0.2010   -3.3481    0.0000 N   0  0  0  0  0  0  0  0  0  1  0  0
    1.5000   -2.5981    0.0000 C   0  0  0  0  0  0  0  0  0  6  0  0
    0.7500   -1.2990    0.0000 C   0  0  0  0  0  0  0  0  0  7  0  0
    2.2500   -3.8971    0.0000 C   0  0  0  0  0  0  0  0  0  8  0  0
    2.7990   -1.8481    0.0000 H   0  0  0  0  0  0  0  0  0  0  0  0
   -0.7500   -1.2990    0.0000 C   0  0  0  0  0  0  0  0  0  9  0  0
    1.5000    0.0000    0.0000 C   0  0  0  0  0  0  0  0  0 11  0  0
    1.5000   -5.1962    0.0000 C   0  0  0  0  0  0  0  0  0 10  0  0
    3.7500   -3.8971    0.0000 C   0  0  0  0  0  0  0  0  0 12  0  0
   -1.5000   -0.0000    0.0000 C   0  0  0  0  0  0  0  0  0 14  0  0
   -1.3038   -1.8724    0.0000 H   0  0  0  0  0  0  0  0  0  0  0  0
    0.7500    1.2990    0.0000 C   0  0  0  0  0  0  0  0  0 16  0  0
    3.0000   -0.0000    0.0000 H   0  0  0  0  0  0  0  0  0  0  0  0
    2.2500   -6.4952    0.0000 C   0  0  0  0  0  0  0  0  0 15  0  0
    0.0446   -5.5591    0.0000 H   0  0  0  0  0  0  0  0  0  0  0  0
    4.5000   -5.1962    0.0000 C   0  0  0  0  0  0  0  0  0 17  0  0
    4.5000   -2.5981    0.0000 H   0  0  0  0  0  0  0  0  0  0  0  0
   -0.7500    1.2990    0.0000 C   0  0  0  0  0  0  0  0  0 18  0  0
   -3.0000   -0.0000    0.0000 H   0  0  0  0  0  0  0  0  0  0  0  0
    1.5000    2.5981    0.0000 H   0  0  0  0  0  0  0  0  0  0  0  0
    3.7500   -6.4952    0.0000 C   0  0  0  0  0  0  0  0  0 19  0  0
    1.5000   -7.7942    0.0000 H   0  0  0  0  0  0  0  0  0  0  0  0
    6.0000   -5.1962    0.0000 H   0  0  0  0  0  0  0  0  0  0  0  0
   -1.5000    2.5981    0.0000 C   0  0  0  0  0  0  0  0  0 21  0  0
    4.5000   -7.7942    0.0000 C   0  0  0  0  0  0  0  0  0 22  0  0
   -2.2500    3.8971    0.0000 N   0  0  0  0  0  0  0  0  0  4  0  0
    5.2500   -9.0933    0.0000 N   0  0  0  0  0  0  0  0  0  5  0  0
    0.8829   -6.0835    0.0000 H   0  0  0  0  0  0  0  0  0  0  0  0
  1  2  1  0
  2  3  2  0
  2  4  1  0
  5  1  2  0
  1  6  1  0
  7  5  1  0
  7  8  1  0
  3  7  1  0
  8  9  1  0
  8 10  1  0
  8 11  1  1
  9 12  2  0
 13  9  1  0
 10 14  2  0
 15 10  1  0
 12 16  1  0
 12 17  1  0
 18 13  2  0
 13 19  1  0
 14 20  1  0
 14 21  1  0
 22 15  2  0
 15 23  1  0
 16 24  2  0
 16 25  1  0
 24 18  1  0
 18 26  1  0
 20 27  2  0
 20 28  1  0
 27 22  1  0
 22 29  1  0
 24 30  1  0
 27 31  1  0
 30 32  3  0
 31 33  3  0
  3 34  1  0
M  CHG  2   2   1   4  -1
M  END
>  <SMILES>  (3) 
N#Cc1ccc(C(c2ccc(C#N)cc2)n2c[n+]([O-])cn2)cc1

>  <Molecular Weight>  (3) 
301.3

>  <Substrate_ID>  (3) 
MOL0083

>  <Substrate>  (3) 


>  <Substrate_SMILES>  (3) 
N#Cc1ccc(C(c2ccc(C#N)cc2)n2cncn2)cc1

>  <Reaction>  (3) 
N-oxidation_(-N=),N-oxidation

>  <Score>  (3) 
0.0672

>  <Reaction_Score>  (3) 
0.023

>  <Bond_Score>  (3) 
0.1963

>  <Rank>  (3) 
2

>  <Subtype>  (3) 
3A4

>  <Subtype_Scores>  (3) 
[3A4] SOM_score: 0.1963, Reaction_score: 0.0230, Score: 0.0672


$$$$
