
     RDKit          2D

 28 30  0  0  0  0  0  0  0  0999 V2000
    0.3943    1.2135    0.0000 C   0  0  0  0  0  0  0  0  0 16  0  0
    0.3943    2.7135    0.0000 C   0  0  0  0  0  0  0  0  0 11  0  0
    1.8861    2.5567    0.0000 O   0  0  0  0  0  0  0  0  0 18  0  0
   -1.0323    3.1771    0.0000 C   0  0  0  0  0  0  0  0  0 12  0  0
    1.2760    0.0000    0.0000 C   0  0  0  0  0  0  0  0  0  9  0  0
   -1.0323    0.7500    0.0000 N   0  0  0  0  0  0  0  0  0  4  0  0
    0.3943   -1.2135    0.0000 N   0  0  0  0  0  0  0  0  0  3  0  0
    2.7760    0.0000    0.0000 H   0  0  0  0  0  0  0  0  0  0  0  0
   -1.9140    1.9635    0.0000 C   0  0  0  0  0  0  0  0  0 17  0  0
   -1.0323   -0.7500    0.0000 C   0  0  0  0  0  0  0  0  0 10  0  0
   -3.0287    2.9672    0.0000 C   0  0  0  0  0  0  0  0  0 15  0  0
   -3.0287    0.9598    0.0000 H   0  0  0  0  0  0  0  0  0  0  0  0
   -2.2458   -1.6317    0.0000 H   0  0  0  0  0  0  0  0  0  0  0  0
   -2.7168    4.4344    0.0000 C   0  0  0  0  0  0  0  0  0  8  0  0
   -4.4553    2.5037    0.0000 C   0  0  0  0  0  0  0  0  0 14  0  0
   -3.8315    5.4381    0.0000 C   0  0  0  0  0  0  0  0  0  6  0  0
   -1.2902    4.8980    0.0000 H   0  0  0  0  0  0  0  0  0  0  0  0
   -4.7671    1.0365    0.0000 F   0  0  0  0  0  0  0  0  0  1  0  0
   -5.5700    3.5074    0.0000 C   0  0  0  0  0  0  0  0  0  7  0  0
   -5.2581    4.9746    0.0000 C   0  0  0  0  0  0  0  0  0 13  0  0
   -3.5197    6.9054    0.0000 H   0  0  0  0  0  0  0  0  0  0  0  0
   -6.9966    3.0439    0.0000 H   0  0  0  0  0  0  0  0  0  0  0  0
   -6.3728    5.9783    0.0000 C   0  0  0  0  0  0  0  0  0  5  0  0
   -7.4876    6.9820    0.0000 N   0  0  0  0  0  0  0  0  0  2  0  0
    0.7062    4.1807    0.0000 H   0  0  0  0  0  0  0  0  0  0  0  0
   -0.4222    4.5474    0.0000 H   0  0  0  0  0  0  0  0  0  0  0  0
   -1.9062    4.0211    0.0000 H   0  0  0  0  0  0  0  0  0  0  0  0
    2.7678    3.7703    0.0000 H   0  0  0  0  0  0  0  0  0  0  0  0
  1  2  1  0
  2  3  1  0
  2  4  1  0
  5  1  2  0
  1  6  1  0
  7  5  1  0
  5  8  1  0
  9  6  1  0
  6 10  1  0
 10  7  2  0
 11  9  1  0
  4  9  1  0
  9 12  1  6
 10 13  1  0
 14 11  2  0
 11 15  1  0
 16 14  1  0
 14 17  1  0
 18 15  1  0
 15 19  2  0
 20 16  2  0
 16 21  1  0
 19 20  1  0
 19 22  1  0
 20 23  1  0
 23 24  3  0
  2 25  1  0
  4 26  1  0
  4 27  1  0
  3 28  1  0
M  END
>  <SMILES>  (1) 
N#Cc1ccc(C2CC(O)c3cncn32)c(F)c1

>  <Molecular Weight>  (1) 
243.2

>  <Substrate_ID>  (1) 
MOL0043

>  <Substrate>  (1) 


>  <Substrate_SMILES>  (1) 
N#Cc1ccc(C2CCc3cncn32)c(F)c1

>  <Reaction>  (1) 
benzylic_hydroxylation_(c-CH2-CR),aliphatic hydroxylation

>  <Score>  (1) 
0.3437

>  <Reaction_Score>  (1) 
0.38

>  <Bond_Score>  (1) 
0.3109

>  <Rank>  (1) 
1

>  <Subtype>  (1) 
1A2, 2A6, 2C8, 2C9, 2C19, 3A4

>  <Subtype_Scores>  (1) 
[1A2] SOM_score: 0.3083, Reaction_score: 0.3800, Score: 0.3423
[2A6] SOM_score: 0.1356, Reaction_score: 0.3800, Score: 0.2270
[2C8] SOM_score: 0.1235, Reaction_score: 0.3800, Score: 0.2166
[2C9] SOM_score: 0.2010, Reaction_score: 0.3800, Score: 0.2763
[2C19] SOM_score: 0.2229, Reaction_score: 0.3800, Score: 0.2910
[3A4] SOM_score: 0.3109, Reaction_score: 0.3800, Score: 0.3437


$$$$

     RDKit          2D

 28 30  0  0  0  0  0  0  0  0999 V2000
    1.2760    0.0000    0.0000 C   0  0  0  0  0  0  0  0  0 10  0  0
    0.3943    1.2135    0.0000 N   0  0  0  0  0  4  0  0  0  3  0  0
   -1.0323    0.7500    0.0000 C   0  0  0  0  0  0  0  0  0  9  0  0
    0.8578    2.6401    0.0000 O   0  0  0  0  0  1  0  0  0 18  0  0
    0.3943   -1.2135    0.0000 N   0  0  0  0  0  0  0  0  0  4  0  0
    2.0731    0.0000    0.0000 H   0  0  0  0  0  0  0  0  0  0  0  0
    0.3943   -2.7135    0.0000 C   0  0  0  0  0  0  0  0  0 17  0  0
   -1.0323   -0.7500    0.0000 C   0  0  0  0  0  0  0  0  0 16  0  0
    1.8861   -2.5567    0.0000 C   0  0  0  0  0  0  0  0  0 15  0  0
   -1.0323   -3.1771    0.0000 C   0  0  0  0  0  0  0  0  0 12  0  0
    0.7062   -4.1807    0.0000 H   0  0  0  0  0  0  0  0  0  0  0  0
   -1.9140   -1.9635    0.0000 C   0  0  0  0  0  0  0  0  0 11  0  0
    2.4962   -1.1864    0.0000 C   0  0  0  0  0  0  0  0  0  8  0  0
    2.7678   -3.7703    0.0000 C   0  0  0  0  0  0  0  0  0 14  0  0
   -0.4222   -4.5474    0.0000 H   0  0  0  0  0  0  0  0  0  0  0  0
   -2.3313   -3.9271    0.0000 H   0  0  0  0  0  0  0  0  0  0  0  0
   -3.0287   -2.9672    0.0000 H   0  0  0  0  0  0  0  0  0  0  0  0
   -3.0287   -0.9598    0.0000 H   0  0  0  0  0  0  0  0  0  0  0  0
    3.9880   -1.0296    0.0000 C   0  0  0  0  0  0  0  0  0  6  0  0
    2.1976   -0.4473    0.0000 H   0  0  0  0  0  0  0  0  0  0  0  0
    2.1577   -5.1406    0.0000 F   0  0  0  0  0  0  0  0  0  1  0  0
    4.2595   -3.6135    0.0000 C   0  0  0  0  0  0  0  0  0  7  0  0
    4.8696   -2.2431    0.0000 C   0  0  0  0  0  0  0  0  0 13  0  0
    4.5981    0.3407    0.0000 H   0  0  0  0  0  0  0  0  0  0  0  0
    5.1412   -4.8270    0.0000 H   0  0  0  0  0  0  0  0  0  0  0  0
    6.3614   -2.0864    0.0000 C   0  0  0  0  0  0  0  0  0  5  0  0
    7.8532   -1.9296    0.0000 N   0  0  0  0  0  0  0  0  0  2  0  0
   -2.2458    1.6317    0.0000 H   0  0  0  0  0  0  0  0  0  0  0  0
  1  2  2  0
  2  3  1  0
  2  4  1  0
  5  1  1  0
  1  6  1  0
  7  5  1  0
  8  5  1  0
  9  7  1  0
 10  7  1  0
  7 11  1  6
  3  8  2  0
  8 12  1  0
 13  9  2  0
  9 14  1  0
 12 10  1  0
 10 15  1  0
 10 16  1  0
 12 17  1  0
 12 18  1  0
 19 13  1  0
 13 20  1  0
 21 14  1  0
 14 22  2  0
 23 19  2  0
 19 24  1  0
 22 23  1  0
 22 25  1  0
 23 26  1  0
 26 27  3  0
  3 28  1  0
M  CHG  2   2   1   4  -1
M  END
>  <SMILES>  (2) 
N#Cc1ccc(C2CCc3c[n+]([O-])cn32)c(F)c1

>  <Molecular Weight>  (2) 
243.2

>  <Substrate_ID>  (2) 
MOL0043

>  <Substrate>  (2) 


>  <Substrate_SMILES>  (2) 
N#Cc1ccc(C2CCc3cncn32)c(F)c1

>  <Reaction>  (2) 
N-oxidation_(-N=),N-oxidation

>  <Score>  (2) 
0.03

>  <Reaction_Score>  (2) 
0.0041

>  <Bond_Score>  (2) 
0.219

>  <Rank>  (2) 
2

>  <Subtype>  (2) 
3A4

>  <Subtype_Scores>  (2) 
[3A4] SOM_score: 0.2190, Reaction_score: 0.0041, Score: 0.0300


$$$$
