
     RDKit          2D

 38 38  0  0  0  0  0  0  0  0999 V2000
    3.0000    0.0000    0.0000 O   0  0  0  0  0  0  0  0  0  2  0  0
    1.5000    0.0000    0.0000 C   0  0  0  0  0  0  0  0  0 18  0  0
    0.7500   -1.2990    0.0000 C   0  0  0  0  0  0  0  0  0 12  0  0
   -0.7500   -1.2990    0.0000 C   0  0  0  0  0  0  0  0  0 11  0  0
   -1.5000    0.0000    0.0000 C   0  0  0  0  0  0  0  0  0 17  0  0
   -0.7500    1.2990    0.0000 C   0  0  0  0  0  0  0  0  0 13  0  0
    0.7500    1.2990    0.0000 C   0  0  0  0  0  0  0  0  0 19  0  0
    1.5000    2.5981    0.0000 O   0  0  0  0  0  0  0  0  0  3  0  0
    1.5000   -2.5981    0.0000 H   0  0  0  0  0  0  0  0  0  0  0  0
   -1.5000   -2.5981    0.0000 H   0  0  0  0  0  0  0  0  0  0  0  0
   -3.0000    0.0000    0.0000 C   0  0  0  0  0  0  0  0  0 10  0  0
   -3.7500    1.2990    0.0000 C   0  0  0  0  0  0  0  0  0  8  0  0
   -3.7500   -1.2990    0.0000 H   0  0  0  0  0  0  0  0  0  0  0  0
   -5.2500    1.2990    0.0000 C   0  0  0  0  0  0  0  0  0  7  0  0
   -3.0000    2.5981    0.0000 H   0  0  0  0  0  0  0  0  0  0  0  0
   -6.0000    2.5981    0.0000 C   0  0  0  0  0  0  0  0  0  9  0  0
   -6.0000    0.0000    0.0000 H   0  0  0  0  0  0  0  0  0  0  0  0
   -7.5000    2.5981    0.0000 C   0  0  0  0  0  0  0  0  0 16  0  0
   -5.2500    3.8971    0.0000 H   0  0  0  0  0  0  0  0  0  0  0  0
   -8.2500    1.2990    0.0000 O   0  0  0  0  0  0  0  0  0  1  0  0
   -8.2500    3.8971    0.0000 N   0  0  0  0  0  0  0  0  0  4  0  0
   -7.5000    5.1962    0.0000 C   0  0  0  0  0  0  0  0  0 15  0  0
   -9.7500    3.8971    0.0000 H   0  0  0  0  0  0  0  0  0  0  0  0
   -6.7500    6.4952    0.0000 C   0  0  0  0  0  0  0  0  0 20  0  0
   -8.3153    5.5422    0.0000 H   0  0  0  0  0  0  0  0  0  0  0  0
   -6.2010    4.4462    0.0000 H   0  0  0  0  0  0  0  0  0  0  0  0
   -8.0490    7.2452    0.0000 C   0  0  0  0  0  0  0  0  0  5  0  0
   -6.0000    7.7942    0.0000 C   0  0  0  0  0  0  0  0  0  6  0  0
   -5.4510    5.7452    0.0000 H   0  0  0  0  0  0  0  0  0  0  0  0
   -8.5821    6.5378    0.0000 H   0  0  0  0  0  0  0  0  0  0  0  0
   -7.7030    8.0605    0.0000 H   0  0  0  0  0  0  0  0  0  0  0  0
   -9.3481    7.9952    0.0000 H   0  0  0  0  0  0  0  0  0  0  0  0
   -6.7074    8.3273    0.0000 H   0  0  0  0  0  0  0  0  0  0  0  0
   -4.7010    7.0442    0.0000 H   0  0  0  0  0  0  0  0  0  0  0  0
   -5.2500    9.0933    0.0000 H   0  0  0  0  0  0  0  0  0  0  0  0
   -1.5000    2.5981    0.0000 H   0  0  0  0  0  0  0  0  0  0  0  0
    3.7500    1.2990    0.0000 H   0  0  0  0  0  0  0  0  0  0  0  0
    3.0000    2.5981    0.0000 H   0  0  0  0  0  0  0  0  0  0  0  0
  1  2  1  0
  2  3  2  0
  3  4  1  0
  4  5  2  0
  5  6  1  0
  6  7  2  0
  7  8  1  0
  7  2  1  0
  3  9  1  0
  4 10  1  0
 11  5  1  0
 12 11  2  0
 11 13  1  0
 14 12  1  0
 12 15  1  0
 16 14  2  0
 14 17  1  0
 18 16  1  0
 16 19  1  0
 20 18  2  0
 18 21  1  0
 21 22  1  0
 21 23  1  0
 22 24  1  0
 22 25  1  0
 22 26  1  0
 24 27  1  0
 24 28  1  0
 24 29  1  0
 27 30  1  0
 27 31  1  0
 27 32  1  0
 28 33  1  0
 28 34  1  0
 28 35  1  0
  6 36  1  0
  1 37  1  0
  8 38  1  0
M  END
>  <SMILES>  (1) 
CC(C)CNC(=O)C=CC=Cc1ccc(O)c(O)c1

>  <Molecular Weight>  (1) 
261.3

>  <Substrate_ID>  (1) 
MOL0065

>  <Substrate>  (1) 


>  <Substrate_SMILES>  (1) 
CC(C)CNC(=O)C=CC=Cc1ccc2c(c1)OCO2

>  <Reaction>  (1) 
O-dealkylation_(methylenedioxyphenyl)a

>  <Score>  (1) 
0.5609

>  <Reaction_Score>  (1) 
0.6213

>  <Bond_Score>  (1) 
0.5064

>  <Rank>  (1) 
1

>  <Subtype>  (1) 
1A2, 2B6, 2C8, 2C9, 2C19, 2D6, 2E1, 3A4

>  <Subtype_Scores>  (1) 
[1A2] SOM_score: 0.4798, Reaction_score: 0.6213, Score: 0.5460
[2B6] SOM_score: 0.2115, Reaction_score: 0.6213, Score: 0.3624
[2C8] SOM_score: 0.2993, Reaction_score: 0.6213, Score: 0.4312
[2C9] SOM_score: 0.2931, Reaction_score: 0.6213, Score: 0.4267
[2C19] SOM_score: 0.4240, Reaction_score: 0.6213, Score: 0.5132
[2D6] SOM_score: 0.4484, Reaction_score: 0.6213, Score: 0.5278
[2E1] SOM_score: 0.1199, Reaction_score: 0.6213, Score: 0.2729
[3A4] SOM_score: 0.5064, Reaction_score: 0.6213, Score: 0.5609


$$$$

     RDKit          2D

 40 41  0  0  0  0  0  0  0  0999 V2000
   -5.6703   10.1701    0.0000 C   0  0  0  0  0  0  0  0  0 20  0  0
   -6.1338   11.5967    0.0000 C   0  0  0  0  0  0  0  0  0  5  0  0
   -6.5973   13.0233    0.0000 O   0  0  0  0  0  0  0  0  0 21  0  0
   -4.2437   10.6337    0.0000 C   0  0  0  0  0  0  0  0  0 15  0  0
   -7.0969    9.7066    0.0000 C   0  0  0  0  0  0  0  0  0  6  0  0
   -5.2067    8.7436    0.0000 H   0  0  0  0  0  0  0  0  0  0  0  0
   -2.8171   11.0972    0.0000 N   0  0  0  0  0  0  0  0  0  4  0  0
   -4.4127   11.5031    0.0000 H   0  0  0  0  0  0  0  0  0  0  0  0
   -3.7802    9.2071    0.0000 H   0  0  0  0  0  0  0  0  0  0  0  0
   -7.4712   10.5094    0.0000 H   0  0  0  0  0  0  0  0  0  0  0  0
   -6.6333    8.2800    0.0000 H   0  0  0  0  0  0  0  0  0  0  0  0
   -8.5234    9.2431    0.0000 H   0  0  0  0  0  0  0  0  0  0  0  0
   -1.7024   10.0935    0.0000 C   0  0  0  0  0  0  0  0  0 16  0  0
   -2.5052   12.5644    0.0000 H   0  0  0  0  0  0  0  0  0  0  0  0
   -0.2758   10.5570    0.0000 O   0  0  0  0  0  0  0  0  0  1  0  0
   -2.0143    8.6263    0.0000 C   0  0  0  0  0  0  0  0  0  9  0  0
   -0.8995    7.6226    0.0000 C   0  0  0  0  0  0  0  0  0  7  0  0
   -3.4408    8.1628    0.0000 H   0  0  0  0  0  0  0  0  0  0  0  0
   -1.2114    6.1554    0.0000 C   0  0  0  0  0  0  0  0  0  8  0  0
    0.5271    8.0861    0.0000 H   0  0  0  0  0  0  0  0  0  0  0  0
   -0.0967    5.1517    0.0000 C   0  0  0  0  0  0  0  0  0 10  0  0
   -2.6380    5.6918    0.0000 H   0  0  0  0  0  0  0  0  0  0  0  0
   -0.4086    3.6844    0.0000 C   0  0  0  0  0  0  0  0  0 17  0  0
    1.3299    5.6152    0.0000 H   0  0  0  0  0  0  0  0  0  0  0  0
   -1.8351    3.2209    0.0000 C   0  0  0  0  0  0  0  0  0 11  0  0
    0.7062    2.6807    0.0000 C   0  0  0  0  0  0  0  0  0 13  0  0
   -2.1470    1.7537    0.0000 C   0  0  0  0  0  0  0  0  0 12  0  0
   -2.9499    4.2246    0.0000 H   0  0  0  0  0  0  0  0  0  0  0  0
    0.3943    1.2135    0.0000 C   0  0  0  0  0  0  0  0  0 19  0  0
    2.1328    3.1443    0.0000 H   0  0  0  0  0  0  0  0  0  0  0  0
   -1.0323    0.7500    0.0000 C   0  0  0  0  0  0  0  0  0 18  0  0
   -3.5736    1.2902    0.0000 H   0  0  0  0  0  0  0  0  0  0  0  0
    1.2760    0.0000    0.0000 O   0  0  0  0  0  0  0  0  0  3  0  0
   -1.0323   -0.7500    0.0000 O   0  0  0  0  0  0  0  0  0  2  0  0
    0.3943   -1.2135    0.0000 C   0  0  0  0  0  0  0  0  0 14  0  0
    1.6933   -1.9635    0.0000 H   0  0  0  0  0  0  0  0  0  0  0  0
   -0.2158   -2.5838    0.0000 H   0  0  0  0  0  0  0  0  0  0  0  0
   -5.3311   11.9711    0.0000 H   0  0  0  0  0  0  0  0  0  0  0  0
   -7.0033   11.4277    0.0000 H   0  0  0  0  0  0  0  0  0  0  0  0
   -8.0645   13.3352    0.0000 H   0  0  0  0  0  0  0  0  0  0  0  0
  1  2  1  0
  2  3  1  0
  4  1  1  0
  1  5  1  0
  1  6  1  0
  7  4  1  0
  4  8  1  0
  4  9  1  0
  5 10  1  0
  5 11  1  0
  5 12  1  0
 13  7  1  0
  7 14  1  0
 15 13  2  0
 13 16  1  0
 16 17  2  0
 16 18  1  0
 17 19  1  0
 17 20  1  0
 19 21  2  0
 19 22  1  0
 21 23  1  0
 21 24  1  0
 23 25  2  0
 26 23  1  0
 25 27  1  0
 25 28  1  0
 29 26  2  0
 26 30  1  0
 27 31  2  0
 27 32  1  0
 31 29  1  0
 29 33  1  0
 34 31  1  0
 33 35  1  0
 35 34  1  0
 35 36  1  0
 35 37  1  0
  2 38  1  0
  2 39  1  0
  3 40  1  0
M  END
>  <SMILES>  (2) 
CC(CO)CNC(=O)C=CC=Cc1ccc2c(c1)OCO2

>  <Molecular Weight>  (2) 
289.3

>  <Substrate_ID>  (2) 
MOL0065

>  <Substrate>  (2) 


>  <Substrate_SMILES>  (2) 
CC(C)CNC(=O)C=CC=Cc1ccc2c(c1)OCO2

>  <Reaction>  (2) 
aliphatic_hydroxylation_(primary_carbon_next_to_tert_carbon),aliphatic hydroxylation

>  <Score>  (2) 
0.138

>  <Reaction_Score>  (2) 
0.1268

>  <Bond_Score>  (2) 
0.1502

>  <Rank>  (2) 
2

>  <Subtype>  (2) 
2C8, 2C9, 2C19

>  <Subtype_Scores>  (2) 
[2C8] SOM_score: 0.1132, Reaction_score: 0.1268, Score: 0.1198
[2C9] SOM_score: 0.1486, Reaction_score: 0.1268, Score: 0.1372
[2C19] SOM_score: 0.1502, Reaction_score: 0.1268, Score: 0.1380


$$$$

     RDKit          2D

 40 41  0  0  0  0  0  0  0  0999 V2000
   -6.1338   11.5967    0.0000 C   0  0  0  0  0  0  0  0  0  5  0  0
   -5.6703   10.1701    0.0000 C   0  0  0  0  0  0  0  0  0 20  0  0
   -7.0969    9.7066    0.0000 O   0  0  0  0  0  0  0  0  0 21  0  0
   -5.2067    8.7436    0.0000 C   0  0  0  0  0  0  0  0  0  6  0  0
   -4.2437   10.6337    0.0000 C   0  0  0  0  0  0  0  0  0 15  0  0
   -2.8171   11.0972    0.0000 N   0  0  0  0  0  0  0  0  0  4  0  0
   -4.4127   11.5031    0.0000 H   0  0  0  0  0  0  0  0  0  0  0  0
   -3.8693    9.8309    0.0000 H   0  0  0  0  0  0  0  0  0  0  0  0
   -1.7024   10.0935    0.0000 C   0  0  0  0  0  0  0  0  0 16  0  0
   -2.5052   12.5644    0.0000 H   0  0  0  0  0  0  0  0  0  0  0  0
   -0.2758   10.5570    0.0000 O   0  0  0  0  0  0  0  0  0  1  0  0
   -2.0143    8.6263    0.0000 C   0  0  0  0  0  0  0  0  0  9  0  0
   -0.8995    7.6226    0.0000 C   0  0  0  0  0  0  0  0  0  7  0  0
   -3.4408    8.1628    0.0000 H   0  0  0  0  0  0  0  0  0  0  0  0
   -1.2114    6.1554    0.0000 C   0  0  0  0  0  0  0  0  0  8  0  0
    0.5271    8.0861    0.0000 H   0  0  0  0  0  0  0  0  0  0  0  0
   -0.0967    5.1517    0.0000 C   0  0  0  0  0  0  0  0  0 10  0  0
   -2.6380    5.6918    0.0000 H   0  0  0  0  0  0  0  0  0  0  0  0
   -0.4086    3.6844    0.0000 C   0  0  0  0  0  0  0  0  0 17  0  0
    1.3299    5.6152    0.0000 H   0  0  0  0  0  0  0  0  0  0  0  0
   -1.8351    3.2209    0.0000 C   0  0  0  0  0  0  0  0  0 11  0  0
    0.7062    2.6807    0.0000 C   0  0  0  0  0  0  0  0  0 13  0  0
   -2.1470    1.7537    0.0000 C   0  0  0  0  0  0  0  0  0 12  0  0
   -2.9499    4.2246    0.0000 H   0  0  0  0  0  0  0  0  0  0  0  0
    0.3943    1.2135    0.0000 C   0  0  0  0  0  0  0  0  0 19  0  0
    2.1328    3.1443    0.0000 H   0  0  0  0  0  0  0  0  0  0  0  0
   -1.0323    0.7500    0.0000 C   0  0  0  0  0  0  0  0  0 18  0  0
   -3.5736    1.2902    0.0000 H   0  0  0  0  0  0  0  0  0  0  0  0
    1.2760    0.0000    0.0000 O   0  0  0  0  0  0  0  0  0  3  0  0
   -1.0323   -0.7500    0.0000 O   0  0  0  0  0  0  0  0  0  2  0  0
    0.3943   -1.2135    0.0000 C   0  0  0  0  0  0  0  0  0 14  0  0
    1.6933   -1.9635    0.0000 H   0  0  0  0  0  0  0  0  0  0  0  0
   -0.2158   -2.5838    0.0000 H   0  0  0  0  0  0  0  0  0  0  0  0
   -7.6062   11.3106    0.0000 H   0  0  0  0  0  0  0  0  0  0  0  0
   -5.3311   11.9711    0.0000 H   0  0  0  0  0  0  0  0  0  0  0  0
   -6.5973   13.0233    0.0000 H   0  0  0  0  0  0  0  0  0  0  0  0
   -8.3256   10.5669    0.0000 H   0  0  0  0  0  0  0  0  0  0  0  0
   -6.6333    8.2800    0.0000 H   0  0  0  0  0  0  0  0  0  0  0  0
   -4.3373    8.9125    0.0000 H   0  0  0  0  0  0  0  0  0  0  0  0
   -4.7432    7.3170    0.0000 H   0  0  0  0  0  0  0  0  0  0  0  0
  1  2  1  0
  2  3  1  0
  2  4  1  0
  5  2  1  0
  6  5  1  0
  5  7  1  0
  5  8  1  0
  9  6  1  0
  6 10  1  0
 11  9  2  0
  9 12  1  0
 12 13  2  0
 12 14  1  0
 13 15  1  0
 13 16  1  0
 15 17  2  0
 15 18  1  0
 17 19  1  0
 17 20  1  0
 19 21  2  0
 22 19  1  0
 21 23  1  0
 21 24  1  0
 25 22  2  0
 22 26  1  0
 23 27  2  0
 23 28  1  0
 27 25  1  0
 25 29  1  0
 30 27  1  0
 29 31  1  0
 31 30  1  0
 31 32  1  0
 31 33  1  0
  1 34  1  0
  1 35  1  0
  1 36  1  0
  3 37  1  0
  4 38  1  0
  4 39  1  0
  4 40  1  0
M  END
>  <SMILES>  (3) 
CC(C)(O)CNC(=O)C=CC=Cc1ccc2c(c1)OCO2

>  <Molecular Weight>  (3) 
289.3

>  <Substrate_ID>  (3) 
MOL0065

>  <Substrate>  (3) 


>  <Substrate_SMILES>  (3) 
CC(C)CNC(=O)C=CC=Cc1ccc2c(c1)OCO2

>  <Reaction>  (3) 
aliphatic_hydroxylation_(tert_carbon_linked_to_two_CH3_groups),aliphatic hydroxylation

>  <Score>  (3) 
0.1379

>  <Reaction_Score>  (3) 
0.1431

>  <Bond_Score>  (3) 
0.133

>  <Rank>  (3) 
3

>  <Subtype>  (3) 
2C8

>  <Subtype_Scores>  (3) 
[2C8] SOM_score: 0.0904, Reaction_score: 0.1431, Score: 0.1137


$$$$
