
     RDKit          2D

 54 58  0  0  0  0  0  0  0  0999 V2000
    1.5000   -2.5981    0.0000 C   0  0  0  0  0  0  0  0  0 26  0  0
    2.6491   -1.6339    0.0000 C   0  0  0  0  0  0  0  0  0 22  0  0
    4.0586   -2.1469    0.0000 C   0  0  0  0  0  0  0  0  0 11  0  0
    5.2077   -1.1827    0.0000 C   0  0  0  0  0  0  0  0  0  7  0  0
    4.9472    0.2945    0.0000 C   0  0  0  0  0  0  0  0  0  5  0  0
    6.0963    1.2586    0.0000 O   0  0  0  0  0  0  0  0  0 28  0  0
    3.5377    0.8075    0.0000 C   0  0  0  0  0  0  0  0  0  6  0  0
    2.3886   -0.1567    0.0000 C   0  0  0  0  0  0  0  0  0 10  0  0
    0.7500   -1.2990    0.0000 C   0  0  0  0  0  0  0  0  0 24  0  0
    0.7500   -3.8971    0.0000 N   0  0  0  0  0  0  0  0  0  4  0  0
    2.6491   -3.5623    0.0000 H   0  0  0  0  0  0  0  0  0  0  0  0
    1.5000    0.0000    0.0000 C   0  0  0  0  0  0  0  0  0 13  0  0
   -0.7500   -1.2990    0.0000 C   0  0  0  0  0  0  0  0  0 23  0  0
    1.5000   -5.1962    0.0000 C   0  0  0  0  0  0  0  0  0 21  0  0
   -0.7500   -3.8971    0.0000 C   0  0  0  0  0  0  0  0  0 20  0  0
    0.7500    1.2990    0.0000 C   0  0  0  0  0  0  0  0  0  9  0  0
    2.2735    0.1929    0.0000 H   0  0  0  0  0  0  0  0  0  0  0  0
   -1.5000   -2.5981    0.0000 C   0  0  0  0  0  0  0  0  0 14  0  0
   -1.5000    0.0000    0.0000 C   0  0  0  0  0  0  0  0  0 12  0  0
    0.7500   -6.4952    0.0000 O   0  0  0  0  0  0  0  0  0  1  0  0
    3.0000   -5.1962    0.0000 O   0  0  0  0  0  0  0  0  0  2  0  0
   -2.1595   -4.4101    0.0000 H   0  0  0  0  0  0  0  0  0  0  0  0
   -0.4895   -5.3743    0.0000 H   0  0  0  0  0  0  0  0  0  0  0  0
   -0.7500    1.2990    0.0000 C   0  0  0  0  0  0  0  0  0  8  0  0
    1.5000    2.5981    0.0000 H   0  0  0  0  0  0  0  0  0  0  0  0
   -2.6491   -1.6339    0.0000 H   0  0  0  0  0  0  0  0  0  0  0  0
   -2.6491   -3.5623    0.0000 H   0  0  0  0  0  0  0  0  0  0  0  0
   -3.0000    0.0000    0.0000 H   0  0  0  0  0  0  0  0  0  0  0  0
    3.7500   -6.4952    0.0000 C   0  0  0  0  0  0  0  0  0 27  0  0
   -1.5000    2.5981    0.0000 H   0  0  0  0  0  0  0  0  0  0  0  0
    4.8991   -5.5310    0.0000 C   0  0  0  0  0  0  0  0  0 19  0  0
    4.0105   -7.9724    0.0000 C   0  0  0  0  0  0  0  0  0 25  0  0
    2.3405   -7.0082    0.0000 H   0  0  0  0  0  0  0  0  0  0  0  0
    6.3086   -6.0440    0.0000 N   0  0  0  0  0  0  0  0  0  3  0  0
    5.6491   -4.2320    0.0000 H   0  0  0  0  0  0  0  0  0  0  0  0
    3.7500   -4.5668    0.0000 H   0  0  0  0  0  0  0  0  0  0  0  0
    5.4200   -8.4854    0.0000 C   0  0  0  0  0  0  0  0  0 15  0  0
    5.4200   -8.4854    0.0000 C   0  0  0  0  0  0  0  0  0 16  0  0
    2.8614   -8.9366    0.0000 H   0  0  0  0  0  0  0  0  0  0  0  0
    6.5691   -7.5213    0.0000 C   0  0  0  0  0  0  0  0  0 17  0  0
    6.5691   -7.5213    0.0000 C   0  0  0  0  0  0  0  0  0 18  0  0
    4.5173   -9.6834    0.0000 H   0  0  0  0  0  0  0  0  0  0  0  0
    6.4430   -9.5825    0.0000 H   0  0  0  0  0  0  0  0  0  0  0  0
    4.8340   -9.8662    0.0000 H   0  0  0  0  0  0  0  0  0  0  0  0
    6.6780   -9.3024    0.0000 H   0  0  0  0  0  0  0  0  0  0  0  0
    7.1551   -8.9020    0.0000 H   0  0  0  0  0  0  0  0  0  0  0  0
    8.0306   -7.1839    0.0000 H   0  0  0  0  0  0  0  0  0  0  0  0
    7.4718   -8.7192    0.0000 H   0  0  0  0  0  0  0  0  0  0  0  0
    7.9056   -6.8402    0.0000 H   0  0  0  0  0  0  0  0  0  0  0  0
    4.3191   -3.6241    0.0000 H   0  0  0  0  0  0  0  0  0  0  0  0
    6.6172   -1.6958    0.0000 H   0  0  0  0  0  0  0  0  0  0  0  0
    3.2772    2.2847    0.0000 H   0  0  0  0  0  0  0  0  0  0  0  0
    1.1451    0.6822    0.0000 H   0  0  0  0  0  0  0  0  0  0  0  0
    5.8358    2.7359    0.0000 H   0  0  0  0  0  0  0  0  0  0  0  0
  1  2  1  0
  2  3  2  0
  3  4  1  0
  4  5  2  0
  5  6  1  0
  5  7  1  0
  7  8  2  0
  8  2  1  0
  9  1  1  0
  1 10  1  0
  1 11  1  1
 12  9  2  0
  9 13  1  0
 14 10  1  0
 10 15  1  0
 16 12  1  0
 12 17  1  0
 18 13  1  0
 13 19  2  0
 20 14  2  0
 14 21  1  0
 15 18  1  0
 15 22  1  0
 15 23  1  0
 24 16  2  0
 16 25  1  0
 18 26  1  0
 18 27  1  0
 19 24  1  0
 19 28  1  0
 21 29  1  0
 24 30  1  0
 29 31  1  0
 32 29  1  0
 29 33  1  6
 31 34  1  0
 31 35  1  0
 31 36  1  0
 37 32  1  0
 32 38  1  0
 32 39  1  0
 34 40  1  0
 41 34  1  0
 40 37  1  0
 37 42  1  0
 37 43  1  0
 38 41  1  0
 38 44  1  0
 38 45  1  0
 40 46  1  0
 40 47  1  0
 41 48  1  0
 41 49  1  0
  3 50  1  0
  4 51  1  0
  7 52  1  0
  8 53  1  0
  6 54  1  0
M  END
>  <SMILES>  (1) 
O=C(OC1CN2CCC1CC2)N1CCc2ccccc2C1c1ccc(O)cc1

>  <Molecular Weight>  (1) 
378.5

>  <Substrate_ID>  (1) 
MOL0014

>  <Substrate>  (1) 


>  <Substrate_SMILES>  (1) 
O=C(OC1CN2CCC1CC2)N1CCc2ccccc2C1c1ccccc1

>  <Reaction>  (1) 
aromatic_hydroxylation_(para_to_carbon),aromatic hydroxylation

>  <Score>  (1) 
0.2331

>  <Reaction_Score>  (1) 
0.2581

>  <Bond_Score>  (1) 
0.2106

>  <Rank>  (1) 
1

>  <Subtype>  (1) 
2C8, 2C9, 2D6, 3A4

>  <Subtype_Scores>  (1) 
[2C8] SOM_score: 0.1147, Reaction_score: 0.2581, Score: 0.1720
[2C9] SOM_score: 0.1743, Reaction_score: 0.2581, Score: 0.2121
[2D6] SOM_score: 0.1578, Reaction_score: 0.2581, Score: 0.2018
[3A4] SOM_score: 0.2106, Reaction_score: 0.2581, Score: 0.2331


$$$$

     RDKit          2D

 54 58  0  0  0  0  0  0  0  0999 V2000
   -1.5000   -2.5981    0.0000 C   0  0  0  0  0  0  0  0  0 26  0  0
   -0.7500   -1.2990    0.0000 C   0  0  0  0  0  0  0  0  0 24  0  0
    0.7500   -1.2990    0.0000 C   0  0  0  0  0  0  0  0  0 23  0  0
    1.5000    0.0000    0.0000 C   0  0  0  0  0  0  0  0  0 12  0  0
    0.7500    1.2990    0.0000 C   0  0  0  0  0  0  0  0  0  8  0  0
    1.5000    2.5981    0.0000 O   0  0  0  0  0  0  0  0  0 28  0  0
   -0.7500    1.2990    0.0000 C   0  0  0  0  0  0  0  0  0  9  0  0
   -1.5000    0.0000    0.0000 C   0  0  0  0  0  0  0  0  0 13  0  0
   -2.6491   -1.6339    0.0000 C   0  0  0  0  0  0  0  0  0 22  0  0
   -0.7500   -3.8971    0.0000 N   0  0  0  0  0  0  0  0  0  4  0  0
   -2.6491   -3.5623    0.0000 H   0  0  0  0  0  0  0  0  0  0  0  0
   -2.3886   -0.1567    0.0000 C   0  0  0  0  0  0  0  0  0 10  0  0
   -4.0586   -2.1469    0.0000 C   0  0  0  0  0  0  0  0  0 11  0  0
   -1.5000   -5.1962    0.0000 C   0  0  0  0  0  0  0  0  0 21  0  0
    0.7500   -3.8971    0.0000 C   0  0  0  0  0  0  0  0  0 20  0  0
   -3.5377    0.8075    0.0000 C   0  0  0  0  0  0  0  0  0  6  0  0
   -1.7277    0.2891    0.0000 H   0  0  0  0  0  0  0  0  0  0  0  0
   -5.2077   -1.1827    0.0000 C   0  0  0  0  0  0  0  0  0  7  0  0
   -4.3191   -3.6241    0.0000 H   0  0  0  0  0  0  0  0  0  0  0  0
   -3.0000   -5.1962    0.0000 O   0  0  0  0  0  0  0  0  0  1  0  0
   -0.7500   -6.4952    0.0000 O   0  0  0  0  0  0  0  0  0  2  0  0
    1.5000   -2.5981    0.0000 C   0  0  0  0  0  0  0  0  0 14  0  0
    2.1595   -4.4101    0.0000 H   0  0  0  0  0  0  0  0  0  0  0  0
    0.4895   -5.3743    0.0000 H   0  0  0  0  0  0  0  0  0  0  0  0
   -4.9472    0.2945    0.0000 C   0  0  0  0  0  0  0  0  0  5  0  0
   -3.2772    2.2847    0.0000 H   0  0  0  0  0  0  0  0  0  0  0  0
   -6.6172   -1.6958    0.0000 H   0  0  0  0  0  0  0  0  0  0  0  0
   -1.5000   -7.7942    0.0000 C   0  0  0  0  0  0  0  0  0 27  0  0
    2.6491   -1.6339    0.0000 H   0  0  0  0  0  0  0  0  0  0  0  0
    2.6491   -3.5623    0.0000 H   0  0  0  0  0  0  0  0  0  0  0  0
   -6.0963    1.2586    0.0000 H   0  0  0  0  0  0  0  0  0  0  0  0
   -0.0905   -8.3073    0.0000 C   0  0  0  0  0  0  0  0  0 19  0  0
   -2.6491   -8.7584    0.0000 C   0  0  0  0  0  0  0  0  0 25  0  0
   -2.6491   -6.8300    0.0000 H   0  0  0  0  0  0  0  0  0  0  0  0
    0.1700   -9.7845    0.0000 N   0  0  0  0  0  0  0  0  0  3  0  0
    1.4095   -8.3073    0.0000 H   0  0  0  0  0  0  0  0  0  0  0  0
    0.1700   -6.8300    0.0000 H   0  0  0  0  0  0  0  0  0  0  0  0
   -2.3886  -10.2356    0.0000 C   0  0  0  0  0  0  0  0  0 15  0  0
   -2.3886  -10.2356    0.0000 C   0  0  0  0  0  0  0  0  0 16  0  0
   -4.0586   -8.2454    0.0000 H   0  0  0  0  0  0  0  0  0  0  0  0
   -0.9791  -10.7487    0.0000 C   0  0  0  0  0  0  0  0  0 17  0  0
   -0.9791  -10.7487    0.0000 C   0  0  0  0  0  0  0  0  0 18  0  0
   -3.8774  -10.0528    0.0000 H   0  0  0  0  0  0  0  0  0  0  0  0
   -2.8272  -11.6701    0.0000 H   0  0  0  0  0  0  0  0  0  0  0  0
   -3.8774  -10.4185    0.0000 H   0  0  0  0  0  0  0  0  0  0  0  0
   -2.4671  -11.7336    0.0000 H   0  0  0  0  0  0  0  0  0  0  0  0
   -1.8818  -11.9466    0.0000 H   0  0  0  0  0  0  0  0  0  0  0  0
    0.0439  -11.8457    0.0000 H   0  0  0  0  0  0  0  0  0  0  0  0
   -1.5651  -12.1294    0.0000 H   0  0  0  0  0  0  0  0  0  0  0  0
    0.2790  -11.5656    0.0000 H   0  0  0  0  0  0  0  0  0  0  0  0
    3.0000    0.0000    0.0000 H   0  0  0  0  0  0  0  0  0  0  0  0
   -1.5000    2.5981    0.0000 H   0  0  0  0  0  0  0  0  0  0  0  0
   -2.9554    0.3630    0.0000 H   0  0  0  0  0  0  0  0  0  0  0  0
    3.0000    2.5981    0.0000 H   0  0  0  0  0  0  0  0  0  0  0  0
  1  2  1  0
  2  3  1  0
  3  4  2  0
  4  5  1  0
  5  6  1  0
  5  7  2  0
  7  8  1  0
  8  2  2  0
  1  9  1  0
  1 10  1  0
  1 11  1  6
  9 12  2  0
 13  9  1  0
 14 10  1  0
 10 15  1  0
 12 16  1  0
 12 17  1  0
 18 13  2  0
 13 19  1  0
 20 14  2  0
 14 21  1  0
 15 22  1  0
 15 23  1  0
 15 24  1  0
 16 25  2  0
 16 26  1  0
 25 18  1  0
 18 27  1  0
 21 28  1  0
 22  3  1  0
 22 29  1  0
 22 30  1  0
 25 31  1  0
 28 32  1  0
 33 28  1  0
 28 34  1  6
 32 35  1  0
 32 36  1  0
 32 37  1  0
 38 33  1  0
 33 39  1  0
 33 40  1  0
 35 41  1  0
 42 35  1  0
 41 38  1  0
 38 43  1  0
 38 44  1  0
 39 42  1  0
 39 45  1  0
 39 46  1  0
 41 47  1  0
 41 48  1  0
 42 49  1  0
 42 50  1  0
  4 51  1  0
  7 52  1  0
  8 53  1  0
  6 54  1  0
M  END
>  <SMILES>  (2) 
O=C(OC1CN2CCC1CC2)N1CCc2cc(O)ccc2C1c1ccccc1

>  <Molecular Weight>  (2) 
378.5

>  <Substrate_ID>  (2) 
MOL0014

>  <Substrate>  (2) 


>  <Substrate_SMILES>  (2) 
O=C(OC1CN2CCC1CC2)N1CCc2ccccc2C1c1ccccc1

>  <Reaction>  (2) 
aromatic_hydroxylation_(para_to_carbon),aromatic hydroxylation

>  <Score>  (2) 
0.2182

>  <Reaction_Score>  (2) 
0.2338

>  <Bond_Score>  (2) 
0.2037

>  <Rank>  (2) 
2

>  <Subtype>  (2) 
2C8, 2C9, 2D6, 3A4

>  <Subtype_Scores>  (2) 
[2C8] SOM_score: 0.0974, Reaction_score: 0.2338, Score: 0.1509
[2C9] SOM_score: 0.1436, Reaction_score: 0.2338, Score: 0.1832
[2D6] SOM_score: 0.1416, Reaction_score: 0.2338, Score: 0.1819
[3A4] SOM_score: 0.2037, Reaction_score: 0.2338, Score: 0.2182


$$$$

     RDKit          2D

 54 58  0  0  0  0  0  0  0  0999 V2000
    0.7500   -1.2990    0.0000 C   0  0  0  0  0  0  0  0  0 23  0  0
    1.5000    0.0000    0.0000 C   0  0  0  0  0  0  0  0  0 14  0  0
    2.6491    0.9642    0.0000 O   0  0  0  0  0  0  0  0  0 28  0  0
    0.7500    1.2990    0.0000 C   0  0  0  0  0  0  0  0  0 20  0  0
    1.5000   -2.5981    0.0000 C   0  0  0  0  0  0  0  0  0 12  0  0
   -0.7500   -1.2990    0.0000 C   0  0  0  0  0  0  0  0  0 24  0  0
    0.7500   -3.8971    0.0000 C   0  0  0  0  0  0  0  0  0  8  0  0
    3.0000   -2.5981    0.0000 H   0  0  0  0  0  0  0  0  0  0  0  0
   -1.5000   -2.5981    0.0000 C   0  0  0  0  0  0  0  0  0 13  0  0
   -1.5000    0.0000    0.0000 C   0  0  0  0  0  0  0  0  0 26  0  0
   -0.7500   -3.8971    0.0000 C   0  0  0  0  0  0  0  0  0  9  0  0
    1.5000   -5.1962    0.0000 H   0  0  0  0  0  0  0  0  0  0  0  0
   -2.2735   -2.7910    0.0000 H   0  0  0  0  0  0  0  0  0  0  0  0
   -2.6491   -0.9642    0.0000 C   0  0  0  0  0  0  0  0  0 22  0  0
   -0.7500    1.2990    0.0000 N   0  0  0  0  0  0  0  0  0  4  0  0
   -2.6491    0.9642    0.0000 H   0  0  0  0  0  0  0  0  0  0  0  0
   -1.5000   -5.1962    0.0000 H   0  0  0  0  0  0  0  0  0  0  0  0
   -4.0586   -0.4512    0.0000 C   0  0  0  0  0  0  0  0  0 10  0  0
   -2.3886   -2.4414    0.0000 C   0  0  0  0  0  0  0  0  0 11  0  0
   -1.5000    2.5981    0.0000 C   0  0  0  0  0  0  0  0  0 21  0  0
   -5.2077   -1.4153    0.0000 C   0  0  0  0  0  0  0  0  0  6  0  0
   -4.3191    1.0261    0.0000 H   0  0  0  0  0  0  0  0  0  0  0  0
   -3.5377   -3.4056    0.0000 C   0  0  0  0  0  0  0  0  0  7  0  0
   -1.1451   -3.2802    0.0000 H   0  0  0  0  0  0  0  0  0  0  0  0
   -0.7500    3.8971    0.0000 O   0  0  0  0  0  0  0  0  0  1  0  0
   -3.0000    2.5981    0.0000 O   0  0  0  0  0  0  0  0  0  2  0  0
   -4.9472   -2.8925    0.0000 C   0  0  0  0  0  0  0  0  0  5  0  0
   -6.6172   -0.9023    0.0000 H   0  0  0  0  0  0  0  0  0  0  0  0
   -3.2772   -4.8828    0.0000 H   0  0  0  0  0  0  0  0  0  0  0  0
   -3.7500    3.8971    0.0000 C   0  0  0  0  0  0  0  0  0 27  0  0
   -6.0963   -3.8567    0.0000 H   0  0  0  0  0  0  0  0  0  0  0  0
   -4.8991    2.9329    0.0000 C   0  0  0  0  0  0  0  0  0 19  0  0
   -4.0105    5.3743    0.0000 C   0  0  0  0  0  0  0  0  0 25  0  0
   -2.3405    4.4101    0.0000 H   0  0  0  0  0  0  0  0  0  0  0  0
   -6.3086    3.4460    0.0000 N   0  0  0  0  0  0  0  0  0  3  0  0
   -5.6491    1.6339    0.0000 H   0  0  0  0  0  0  0  0  0  0  0  0
   -3.7500    1.9688    0.0000 H   0  0  0  0  0  0  0  0  0  0  0  0
   -5.4200    5.8874    0.0000 C   0  0  0  0  0  0  0  0  0 15  0  0
   -5.4200    5.8874    0.0000 C   0  0  0  0  0  0  0  0  0 16  0  0
   -2.8614    6.3385    0.0000 H   0  0  0  0  0  0  0  0  0  0  0  0
   -6.5691    4.9232    0.0000 C   0  0  0  0  0  0  0  0  0 17  0  0
   -6.5691    4.9232    0.0000 C   0  0  0  0  0  0  0  0  0 18  0  0
   -4.5173    7.0853    0.0000 H   0  0  0  0  0  0  0  0  0  0  0  0
   -6.4430    6.9844    0.0000 H   0  0  0  0  0  0  0  0  0  0  0  0
   -4.8340    7.2681    0.0000 H   0  0  0  0  0  0  0  0  0  0  0  0
   -6.6780    6.7043    0.0000 H   0  0  0  0  0  0  0  0  0  0  0  0
   -7.1551    6.3039    0.0000 H   0  0  0  0  0  0  0  0  0  0  0  0
   -8.0306    4.5858    0.0000 H   0  0  0  0  0  0  0  0  0  0  0  0
   -7.4718    6.1211    0.0000 H   0  0  0  0  0  0  0  0  0  0  0  0
   -7.9056    4.2422    0.0000 H   0  0  0  0  0  0  0  0  0  0  0  0
    2.6491   -0.9642    0.0000 H   0  0  0  0  0  0  0  0  0  0  0  0
    0.4895    2.7762    0.0000 H   0  0  0  0  0  0  0  0  0  0  0  0
    2.1595    1.8121    0.0000 H   0  0  0  0  0  0  0  0  0  0  0  0
    4.0586    0.4512    0.0000 H   0  0  0  0  0  0  0  0  0  0  0  0
  1  2  1  0
  2  3  1  0
  2  4  1  0
  1  5  1  0
  6  1  2  0
  5  7  2  0
  5  8  1  0
  9  6  1  0
  6 10  1  0
  7 11  1  0
  7 12  1  0
 11  9  2  0
  9 13  1  0
 10 14  1  0
 10 15  1  0
 10 16  1  1
 11 17  1  0
 14 18  2  0
 19 14  1  0
 20 15  1  0
 15  4  1  0
 18 21  1  0
 18 22  1  0
 23 19  2  0
 19 24  1  0
 25 20  2  0
 20 26  1  0
 21 27  2  0
 21 28  1  0
 27 23  1  0
 23 29  1  0
 26 30  1  0
 27 31  1  0
 30 32  1  0
 33 30  1  0
 30 34  1  6
 32 35  1  0
 32 36  1  0
 32 37  1  0
 38 33  1  0
 33 39  1  0
 33 40  1  0
 35 41  1  0
 42 35  1  0
 41 38  1  0
 38 43  1  0
 38 44  1  0
 39 42  1  0
 39 45  1  0
 39 46  1  0
 41 47  1  0
 41 48  1  0
 42 49  1  0
 42 50  1  0
  2 51  1  0
  4 52  1  0
  4 53  1  0
  3 54  1  0
M  END
>  <SMILES>  (3) 
O=C(OC1CN2CCC1CC2)N1CC(O)c2ccccc2C1c1ccccc1

>  <Molecular Weight>  (3) 
378.5

>  <Substrate_ID>  (3) 
MOL0014

>  <Substrate>  (3) 


>  <Substrate_SMILES>  (3) 
O=C(OC1CN2CCC1CC2)N1CCc2ccccc2C1c1ccccc1

>  <Reaction>  (3) 
benzylic_hydroxylation_(c-CH2-CR),aliphatic hydroxylation

>  <Score>  (3) 
0.2104

>  <Reaction_Score>  (3) 
0.1925

>  <Bond_Score>  (3) 
0.2299

>  <Rank>  (3) 
3

>  <Subtype>  (3) 
3A4

>  <Subtype_Scores>  (3) 
[3A4] SOM_score: 0.2299, Reaction_score: 0.1925, Score: 0.2104


$$$$

     RDKit          2D

 54 58  0  0  0  0  0  0  0  0999 V2000
    1.5000    0.0000    0.0000 C   0  0  0  0  0  0  0  0  0 14  0  0
    0.7500   -1.2990    0.0000 C   0  0  0  0  0  0  0  0  0 20  0  0
    2.1595   -1.8121    0.0000 O   0  0  0  0  0  0  0  0  0 28  0  0
   -0.7500   -1.2990    0.0000 N   0  0  0  0  0  0  0  0  0  4  0  0
    0.7500    1.2990    0.0000 C   0  0  0  0  0  0  0  0  0 23  0  0
    2.6491    0.9642    0.0000 H   0  0  0  0  0  0  0  0  0  0  0  0
    2.6491   -0.9642    0.0000 H   0  0  0  0  0  0  0  0  0  0  0  0
    1.5000    2.5981    0.0000 C   0  0  0  0  0  0  0  0  0 12  0  0
   -0.7500    1.2990    0.0000 C   0  0  0  0  0  0  0  0  0 24  0  0
    0.7500    3.8971    0.0000 C   0  0  0  0  0  0  0  0  0  8  0  0
    3.0000    2.5981    0.0000 H   0  0  0  0  0  0  0  0  0  0  0  0
   -1.5000    2.5981    0.0000 C   0  0  0  0  0  0  0  0  0 13  0  0
   -1.5000    0.0000    0.0000 C   0  0  0  0  0  0  0  0  0 26  0  0
   -0.7500    3.8971    0.0000 C   0  0  0  0  0  0  0  0  0  9  0  0
    1.5000    5.1962    0.0000 H   0  0  0  0  0  0  0  0  0  0  0  0
   -3.0000    2.5981    0.0000 H   0  0  0  0  0  0  0  0  0  0  0  0
   -2.6491   -0.9642    0.0000 C   0  0  0  0  0  0  0  0  0 22  0  0
   -2.6491    0.9642    0.0000 H   0  0  0  0  0  0  0  0  0  0  0  0
   -1.5000    5.1962    0.0000 H   0  0  0  0  0  0  0  0  0  0  0  0
   -4.0586   -0.4512    0.0000 C   0  0  0  0  0  0  0  0  0 10  0  0
   -2.3886   -2.4414    0.0000 C   0  0  0  0  0  0  0  0  0 11  0  0
   -5.2077   -1.4153    0.0000 C   0  0  0  0  0  0  0  0  0  6  0  0
   -4.3191    1.0261    0.0000 H   0  0  0  0  0  0  0  0  0  0  0  0
   -3.5377   -3.4056    0.0000 C   0  0  0  0  0  0  0  0  0  7  0  0
   -1.7277   -2.8872    0.0000 H   0  0  0  0  0  0  0  0  0  0  0  0
   -4.9472   -2.8925    0.0000 C   0  0  0  0  0  0  0  0  0  5  0  0
   -6.6172   -0.9023    0.0000 H   0  0  0  0  0  0  0  0  0  0  0  0
   -3.2772   -4.8828    0.0000 H   0  0  0  0  0  0  0  0  0  0  0  0
   -6.2052   -3.7095    0.0000 H   0  0  0  0  0  0  0  0  0  0  0  0
    0.4895   -2.7762    0.0000 H   0  0  0  0  0  0  0  0  0  0  0  0
   -1.5000   -2.5981    0.0000 C   0  0  0  0  0  0  0  0  0 21  0  0
   -0.5972   -3.7960    0.0000 O   0  0  0  0  0  0  0  0  0  1  0  0
   -3.0000   -2.5981    0.0000 O   0  0  0  0  0  0  0  0  0  2  0  0
   -3.7500   -3.8971    0.0000 C   0  0  0  0  0  0  0  0  0 27  0  0
   -2.3405   -4.4101    0.0000 C   0  0  0  0  0  0  0  0  0 19  0  0
   -4.8991   -4.8613    0.0000 C   0  0  0  0  0  0  0  0  0 25  0  0
   -5.0982   -3.2396    0.0000 H   0  0  0  0  0  0  0  0  0  0  0  0
   -2.0800   -5.8874    0.0000 N   0  0  0  0  0  0  0  0  0  3  0  0
   -0.8516   -4.5930    0.0000 H   0  0  0  0  0  0  0  0  0  0  0  0
   -1.4168   -3.2282    0.0000 H   0  0  0  0  0  0  0  0  0  0  0  0
   -4.6386   -6.3385    0.0000 C   0  0  0  0  0  0  0  0  0 15  0  0
   -4.6386   -6.3385    0.0000 C   0  0  0  0  0  0  0  0  0 16  0  0
   -6.3606   -4.5239    0.0000 H   0  0  0  0  0  0  0  0  0  0  0  0
   -3.2291   -6.8515    0.0000 C   0  0  0  0  0  0  0  0  0 17  0  0
   -3.2291   -6.8515    0.0000 C   0  0  0  0  0  0  0  0  0 18  0  0
   -6.1274   -6.1557    0.0000 H   0  0  0  0  0  0  0  0  0  0  0  0
   -5.0772   -7.7730    0.0000 H   0  0  0  0  0  0  0  0  0  0  0  0
   -6.1274   -6.5214    0.0000 H   0  0  0  0  0  0  0  0  0  0  0  0
   -4.7171   -7.8365    0.0000 H   0  0  0  0  0  0  0  0  0  0  0  0
   -4.1318   -8.0495    0.0000 H   0  0  0  0  0  0  0  0  0  0  0  0
   -2.2061   -7.9486    0.0000 H   0  0  0  0  0  0  0  0  0  0  0  0
   -3.8151   -8.2323    0.0000 H   0  0  0  0  0  0  0  0  0  0  0  0
   -1.9710   -7.6685    0.0000 H   0  0  0  0  0  0  0  0  0  0  0  0
    2.4200   -3.2893    0.0000 H   0  0  0  0  0  0  0  0  0  0  0  0
  1  2  1  0
  2  3  1  0
  2  4  1  0
  1  5  1  0
  1  6  1  0
  1  7  1  0
  5  8  2  0
  9  5  1  0
  8 10  1  0
  8 11  1  0
 12  9  2  0
  9 13  1  0
 10 14  2  0
 10 15  1  0
 14 12  1  0
 12 16  1  0
 13 17  1  0
 13  4  1  0
 13 18  1  6
 14 19  1  0
 17 20  2  0
 21 17  1  0
 20 22  1  0
 20 23  1  0
 24 21  2  0
 21 25  1  0
 22 26  2  0
 22 27  1  0
 26 24  1  0
 24 28  1  0
 26 29  1  0
  2 30  1  0
 31  4  1  0
 32 31  2  0
 31 33  1  0
 33 34  1  0
 34 35  1  0
 36 34  1  0
 34 37  1  6
 35 38  1  0
 35 39  1  0
 35 40  1  0
 41 36  1  0
 36 42  1  0
 36 43  1  0
 38 44  1  0
 45 38  1  0
 44 41  1  0
 41 46  1  0
 41 47  1  0
 42 45  1  0
 42 48  1  0
 42 49  1  0
 44 50  1  0
 44 51  1  0
 45 52  1  0
 45 53  1  0
  3 54  1  0
M  END
>  <SMILES>  (4) 
O=C(OC1CN2CCC1CC2)N1C(O)Cc2ccccc2C1c1ccccc1

>  <Molecular Weight>  (4) 
378.5

>  <Substrate_ID>  (4) 
MOL0014

>  <Substrate>  (4) 


>  <Substrate_SMILES>  (4) 
O=C(OC1CN2CCC1CC2)N1CCc2ccccc2C1c1ccccc1

>  <Reaction>  (4) 
aliphatic_hydroxylation_(sec_carbon_next_to_SP2,in_a_ring),aliphatic hydroxylation

>  <Score>  (4) 
0.1173

>  <Reaction_Score>  (4) 
0.0908

>  <Bond_Score>  (4) 
0.1517

>  <Rank>  (4) 
4

>  <Subtype>  (4) 
3A4

>  <Subtype_Scores>  (4) 
[3A4] SOM_score: 0.1517, Reaction_score: 0.0908, Score: 0.1173


$$$$

     RDKit          2D

 52 56  0  0  0  0  0  0  0  0999 V2000
    1.5000    0.0000    0.0000 C   0  0  0  0  0  0  0  0  0 14  0  0
    0.7500   -1.2990    0.0000 C   0  0  0  0  0  0  0  0  0 20  0  0
    1.5000   -2.5981    0.0000 O   0  0  0  0  0  0  0  0  0 28  0  0
   -0.7500   -1.2990    0.0000 N   0  0  0  0  0  0  0  0  0  4  0  0
    0.7500    1.2990    0.0000 C   0  0  0  0  0  0  0  0  0 23  0  0
    2.6491    0.9642    0.0000 H   0  0  0  0  0  0  0  0  0  0  0  0
    2.6491   -0.9642    0.0000 H   0  0  0  0  0  0  0  0  0  0  0  0
    1.5000    2.5981    0.0000 C   0  0  0  0  0  0  0  0  0 12  0  0
   -0.7500    1.2990    0.0000 C   0  0  0  0  0  0  0  0  0 24  0  0
    0.7500    3.8971    0.0000 C   0  0  0  0  0  0  0  0  0  8  0  0
    3.0000    2.5981    0.0000 H   0  0  0  0  0  0  0  0  0  0  0  0
   -1.5000    2.5981    0.0000 C   0  0  0  0  0  0  0  0  0 13  0  0
   -1.5000    0.0000    0.0000 C   0  0  0  0  0  0  0  0  0 26  0  0
   -0.7500    3.8971    0.0000 C   0  0  0  0  0  0  0  0  0  9  0  0
    1.5000    5.1962    0.0000 H   0  0  0  0  0  0  0  0  0  0  0  0
   -3.0000    2.5981    0.0000 H   0  0  0  0  0  0  0  0  0  0  0  0
   -2.6491   -0.9642    0.0000 C   0  0  0  0  0  0  0  0  0 22  0  0
   -2.6491    0.9642    0.0000 H   0  0  0  0  0  0  0  0  0  0  0  0
   -1.5000    5.1962    0.0000 H   0  0  0  0  0  0  0  0  0  0  0  0
   -4.0586   -0.4512    0.0000 C   0  0  0  0  0  0  0  0  0 10  0  0
   -2.3886   -2.4414    0.0000 C   0  0  0  0  0  0  0  0  0 11  0  0
   -5.2077   -1.4153    0.0000 C   0  0  0  0  0  0  0  0  0  6  0  0
   -4.3191    1.0261    0.0000 H   0  0  0  0  0  0  0  0  0  0  0  0
   -3.5377   -3.4056    0.0000 C   0  0  0  0  0  0  0  0  0  7  0  0
   -1.7277   -2.8872    0.0000 H   0  0  0  0  0  0  0  0  0  0  0  0
   -4.9472   -2.8925    0.0000 C   0  0  0  0  0  0  0  0  0  5  0  0
   -6.6172   -0.9023    0.0000 H   0  0  0  0  0  0  0  0  0  0  0  0
   -3.2772   -4.8828    0.0000 H   0  0  0  0  0  0  0  0  0  0  0  0
   -6.2052   -3.7095    0.0000 H   0  0  0  0  0  0  0  0  0  0  0  0
   -1.5000   -2.5981    0.0000 C   0  0  0  0  0  0  0  0  0 21  0  0
   -0.5972   -3.7960    0.0000 O   0  0  0  0  0  0  0  0  0  1  0  0
   -3.0000   -2.5981    0.0000 O   0  0  0  0  0  0  0  0  0  2  0  0
   -3.7500   -3.8971    0.0000 C   0  0  0  0  0  0  0  0  0 27  0  0
   -2.3405   -4.4101    0.0000 C   0  0  0  0  0  0  0  0  0 19  0  0
   -4.8991   -4.8613    0.0000 C   0  0  0  0  0  0  0  0  0 25  0  0
   -5.0982   -3.2396    0.0000 H   0  0  0  0  0  0  0  0  0  0  0  0
   -2.0800   -5.8874    0.0000 N   0  0  0  0  0  0  0  0  0  3  0  0
   -0.8516   -4.5930    0.0000 H   0  0  0  0  0  0  0  0  0  0  0  0
   -1.4168   -3.2282    0.0000 H   0  0  0  0  0  0  0  0  0  0  0  0
   -4.6386   -6.3385    0.0000 C   0  0  0  0  0  0  0  0  0 15  0  0
   -4.6386   -6.3385    0.0000 C   0  0  0  0  0  0  0  0  0 16  0  0
   -6.3606   -4.5239    0.0000 H   0  0  0  0  0  0  0  0  0  0  0  0
   -3.2291   -6.8515    0.0000 C   0  0  0  0  0  0  0  0  0 17  0  0
   -3.2291   -6.8515    0.0000 C   0  0  0  0  0  0  0  0  0 18  0  0
   -6.1274   -6.1557    0.0000 H   0  0  0  0  0  0  0  0  0  0  0  0
   -5.0772   -7.7730    0.0000 H   0  0  0  0  0  0  0  0  0  0  0  0
   -6.1274   -6.5214    0.0000 H   0  0  0  0  0  0  0  0  0  0  0  0
   -4.7171   -7.8365    0.0000 H   0  0  0  0  0  0  0  0  0  0  0  0
   -4.1318   -8.0495    0.0000 H   0  0  0  0  0  0  0  0  0  0  0  0
   -2.2061   -7.9486    0.0000 H   0  0  0  0  0  0  0  0  0  0  0  0
   -3.8151   -8.2323    0.0000 H   0  0  0  0  0  0  0  0  0  0  0  0
   -1.9710   -7.6685    0.0000 H   0  0  0  0  0  0  0  0  0  0  0  0
  1  2  1  0
  2  3  2  0
  2  4  1  0
  1  5  1  0
  1  6  1  0
  1  7  1  0
  5  8  2  0
  9  5  1  0
  8 10  1  0
  8 11  1  0
 12  9  2  0
  9 13  1  0
 10 14  2  0
 10 15  1  0
 14 12  1  0
 12 16  1  0
 13 17  1  0
 13  4  1  0
 13 18  1  6
 14 19  1  0
 17 20  2  0
 21 17  1  0
 20 22  1  0
 20 23  1  0
 24 21  2  0
 21 25  1  0
 22 26  2  0
 22 27  1  0
 26 24  1  0
 24 28  1  0
 26 29  1  0
 30  4  1  0
 31 30  2  0
 30 32  1  0
 32 33  1  0
 33 34  1  0
 35 33  1  0
 33 36  1  6
 34 37  1  0
 34 38  1  0
 34 39  1  0
 40 35  1  0
 35 41  1  0
 35 42  1  0
 37 43  1  0
 44 37  1  0
 43 40  1  0
 40 45  1  0
 40 46  1  0
 41 44  1  0
 41 47  1  0
 41 48  1  0
 43 49  1  0
 43 50  1  0
 44 51  1  0
 44 52  1  0
M  END
>  <SMILES>  (5) 
O=C1Cc2ccccc2C(c2ccccc2)N1C(=O)OC1CN2CCC1CC2

>  <Molecular Weight>  (5) 
376.5

>  <Substrate_ID>  (5) 
MOL0014

>  <Substrate>  (5) 


>  <Substrate_SMILES>  (5) 
O=C(OC1CN2CCC1CC2)N1CCc2ccccc2C1c1ccccc1

>  <Reaction>  (5) 
oxidation_(amine_in_a_ring)

>  <Score>  (5) 
0.1173

>  <Reaction_Score>  (5) 
0.0908

>  <Bond_Score>  (5) 
0.1517

>  <Rank>  (5) 
4

>  <Subtype>  (5) 
3A4

>  <Subtype_Scores>  (5) 
[3A4] SOM_score: 0.1517, Reaction_score: 0.0908, Score: 0.1173


$$$$

     RDKit          2D

 54 58  0  0  0  0  0  0  0  0999 V2000
    0.7500   -1.2990    0.0000 N   0  0  0  0  0  4  0  0  0  4  0  0
    0.8263   -2.3899    0.0000 O   0  0  0  0  0  1  0  0  0 28  0  0
    2.1595   -1.8121    0.0000 C   0  0  0  0  0  0  0  0  0 21  0  0
    1.5000    0.0000    0.0000 C   0  0  0  0  0  0  0  0  0 20  0  0
   -0.7500   -1.2990    0.0000 C   0  0  0  0  0  0  0  0  0 26  0  0
    0.7500    1.2990    0.0000 C   0  0  0  0  0  0  0  0  0 14  0  0
    2.6491    0.9642    0.0000 H   0  0  0  0  0  0  0  0  0  0  0  0
    2.8482   -0.6575    0.0000 H   0  0  0  0  0  0  0  0  0  0  0  0
   -1.5000    0.0000    0.0000 C   0  0  0  0  0  0  0  0  0 24  0  0
   -0.4895   -2.7762    0.0000 C   0  0  0  0  0  0  0  0  0 22  0  0
   -2.1595   -1.8121    0.0000 H   0  0  0  0  0  0  0  0  0  0  0  0
   -0.7500    1.2990    0.0000 C   0  0  0  0  0  0  0  0  0 23  0  0
    0.4895    2.7762    0.0000 H   0  0  0  0  0  0  0  0  0  0  0  0
    2.1595    1.8121    0.0000 H   0  0  0  0  0  0  0  0  0  0  0  0
   -3.0000    0.0000    0.0000 C   0  0  0  0  0  0  0  0  0 13  0  0
   -1.6386   -3.7404    0.0000 C   0  0  0  0  0  0  0  0  0 10  0  0
    0.9200   -3.2893    0.0000 C   0  0  0  0  0  0  0  0  0 11  0  0
   -1.5000    2.5981    0.0000 C   0  0  0  0  0  0  0  0  0 12  0  0
   -3.7500    1.2990    0.0000 C   0  0  0  0  0  0  0  0  0  9  0  0
   -3.7500   -1.2990    0.0000 H   0  0  0  0  0  0  0  0  0  0  0  0
   -1.3781   -5.2176    0.0000 C   0  0  0  0  0  0  0  0  0  6  0  0
   -3.0481   -3.2274    0.0000 H   0  0  0  0  0  0  0  0  0  0  0  0
    1.1805   -4.7665    0.0000 C   0  0  0  0  0  0  0  0  0  7  0  0
    1.6365   -2.9399    0.0000 H   0  0  0  0  0  0  0  0  0  0  0  0
   -3.0000    2.5981    0.0000 C   0  0  0  0  0  0  0  0  0  8  0  0
   -0.7500    3.8971    0.0000 H   0  0  0  0  0  0  0  0  0  0  0  0
   -5.2500    1.2990    0.0000 H   0  0  0  0  0  0  0  0  0  0  0  0
    0.0314   -5.7307    0.0000 C   0  0  0  0  0  0  0  0  0  5  0  0
   -2.5272   -6.1818    0.0000 H   0  0  0  0  0  0  0  0  0  0  0  0
    2.5900   -5.2795    0.0000 H   0  0  0  0  0  0  0  0  0  0  0  0
   -3.7500    3.8971    0.0000 H   0  0  0  0  0  0  0  0  0  0  0  0
    0.2919   -7.2079    0.0000 H   0  0  0  0  0  0  0  0  0  0  0  0
    2.2980   -2.5971    0.0000 O   0  0  0  0  0  0  0  0  0  1  0  0
    3.3086   -0.8479    0.0000 O   0  0  0  0  0  0  0  0  0  2  0  0
    4.7181   -1.3609    0.0000 C   0  0  0  0  0  0  0  0  0 27  0  0
    4.9786    0.1163    0.0000 C   0  0  0  0  0  0  0  0  0 19  0  0
    5.8672   -2.3251    0.0000 C   0  0  0  0  0  0  0  0  0 25  0  0
    3.9681   -2.6600    0.0000 H   0  0  0  0  0  0  0  0  0  0  0  0
    6.3882    0.6293    0.0000 N   0  0  0  0  0  0  0  0  0  3  0  0
    4.7181    1.5935    0.0000 H   0  0  0  0  0  0  0  0  0  0  0  0
    3.4786    0.1163    0.0000 H   0  0  0  0  0  0  0  0  0  0  0  0
    7.2768   -1.8121    0.0000 C   0  0  0  0  0  0  0  0  0 15  0  0
    7.2768   -1.8121    0.0000 C   0  0  0  0  0  0  0  0  0 16  0  0
    5.6067   -3.8023    0.0000 H   0  0  0  0  0  0  0  0  0  0  0  0
    7.5372   -0.3349    0.0000 C   0  0  0  0  0  0  0  0  0 17  0  0
    7.5372   -0.3349    0.0000 C   0  0  0  0  0  0  0  0  0 18  0  0
    7.3552   -3.3100    0.0000 H   0  0  0  0  0  0  0  0  0  0  0  0
    8.7656   -1.9949    0.0000 H   0  0  0  0  0  0  0  0  0  0  0  0
    7.7153   -3.2465    0.0000 H   0  0  0  0  0  0  0  0  0  0  0  0
    8.7656   -1.6292    0.0000 H   0  0  0  0  0  0  0  0  0  0  0  0
    8.8737   -1.0159    0.0000 H   0  0  0  0  0  0  0  0  0  0  0  0
    8.4400    0.8631    0.0000 H   0  0  0  0  0  0  0  0  0  0  0  0
    8.9988   -0.6722    0.0000 H   0  0  0  0  0  0  0  0  0  0  0  0
    8.1233    1.0459    0.0000 H   0  0  0  0  0  0  0  0  0  0  0  0
  1  2  1  0
  1  3  1  0
  1  4  1  0
  5  1  1  0
  4  6  1  0
  4  7  1  0
  4  8  1  0
  9  5  1  0
  5 10  1  0
  5 11  1  6
  6 12  1  0
  6 13  1  0
  6 14  1  0
 15  9  1  0
  9 12  2  0
 10 16  2  0
 17 10  1  0
 12 18  1  0
 19 15  2  0
 15 20  1  0
 16 21  1  0
 16 22  1  0
 23 17  2  0
 17 24  1  0
 18 25  2  0
 18 26  1  0
 25 19  1  0
 19 27  1  0
 21 28  2  0
 21 29  1  0
 28 23  1  0
 23 30  1  0
 25 31  1  0
 28 32  1  0
 33  3  2  0
  3 34  1  0
 34 35  1  0
 35 36  1  0
 37 35  1  0
 35 38  1  6
 36 39  1  0
 36 40  1  0
 36 41  1  0
 42 37  1  0
 37 43  1  0
 37 44  1  0
 39 45  1  0
 46 39  1  0
 45 42  1  0
 42 47  1  0
 42 48  1  0
 43 46  1  0
 43 49  1  0
 43 50  1  0
 45 51  1  0
 45 52  1  0
 46 53  1  0
 46 54  1  0
M  CHG  2   1   1   2  -1
M  END
>  <SMILES>  (6) 
O=C(OC1CN2CCC1CC2)[N+]1([O-])CCc2ccccc2C1c1ccccc1

>  <Molecular Weight>  (6) 
378.5

>  <Substrate_ID>  (6) 
MOL0014

>  <Substrate>  (6) 


>  <Substrate_SMILES>  (6) 
O=C(OC1CN2CCC1CC2)N1CCc2ccccc2C1c1ccccc1

>  <Reaction>  (6) 
N-oxidation

>  <Score>  (6) 
0.0444

>  <Reaction_Score>  (6) 
0.0122

>  <Bond_Score>  (6) 
0.1623

>  <Rank>  (6) 
5

>  <Subtype>  (6) 
3A4

>  <Subtype_Scores>  (6) 
[3A4] SOM_score: 0.1623, Reaction_score: 0.0122, Score: 0.0444


$$$$

     RDKit          2D

 25 26  0  0  0  0  0  0  0  0999 V2000
    2.6491    0.9642    0.0000 O   0  0  0  0  0  0  0  0  0  2  0  0
    4.0586    0.4512    0.0000 C   0  0  0  0  0  0  0  0  0 21  0  0
    5.2077    1.4153    0.0000 O   0  0  0  0  0  0  0  0  0  1  0  0
    4.3191   -1.0261    0.0000 O   0  0  0  0  0  0  0  0  0 28  0  0
    1.5000    0.0000    0.0000 C   0  0  0  0  0  0  0  0  0 27  0  0
    0.7500   -1.2990    0.0000 C   0  0  0  0  0  0  0  0  0 19  0  0
    0.7500    1.2990    0.0000 C   0  0  0  0  0  0  0  0  0 25  0  0
    2.6491   -0.9642    0.0000 H   0  0  0  0  0  0  0  0  0  0  0  0
   -0.7500   -1.2990    0.0000 N   0  0  0  0  0  0  0  0  0  3  0  0
    2.1595   -1.8121    0.0000 H   0  0  0  0  0  0  0  0  0  0  0  0
    0.4895   -2.7762    0.0000 H   0  0  0  0  0  0  0  0  0  0  0  0
   -0.7500    1.2990    0.0000 C   0  0  0  0  0  0  0  0  0 15  0  0
   -0.4000    0.6928    0.0000 C   0  0  0  0  0  0  0  0  0 16  0  0
    1.5000    2.5981    0.0000 H   0  0  0  0  0  0  0  0  0  0  0  0
   -1.5000    0.0000    0.0000 C   0  0  0  0  0  0  0  0  0 17  0  0
   -0.8000    0.0000    0.0000 C   0  0  0  0  0  0  0  0  0 18  0  0
   -1.5392    1.7012    0.0000 H   0  0  0  0  0  0  0  0  0  0  0  0
   -0.3114    2.7335    0.0000 H   0  0  0  0  0  0  0  0  0  0  0  0
   -1.1018    1.0584    0.0000 H   0  0  0  0  0  0  0  0  0  0  0  0
   -0.6715    2.7970    0.0000 H   0  0  0  0  0  0  0  0  0  0  0  0
   -2.7580   -0.8169    0.0000 H   0  0  0  0  0  0  0  0  0  0  0  0
   -2.5230    1.0971    0.0000 H   0  0  0  0  0  0  0  0  0  0  0  0
   -2.5230   -1.0971    0.0000 H   0  0  0  0  0  0  0  0  0  0  0  0
   -2.7580    0.8169    0.0000 H   0  0  0  0  0  0  0  0  0  0  0  0
    5.7286   -1.5391    0.0000 H   0  0  0  0  0  0  0  0  0  0  0  0
  1  2  1  0
  2  3  2  0
  2  4  1  0
  1  5  1  0
  5  6  1  0
  7  5  1  0
  5  8  1  6
  6  9  1  0
  6 10  1  0
  6 11  1  0
 12  7  1  0
  7 13  1  0
  7 14  1  0
  9 15  1  0
 16  9  1  0
 15 12  1  0
 12 17  1  0
 12 18  1  0
 13 16  1  0
 13 19  1  0
 13 20  1  0
 15 21  1  0
 15 22  1  0
 16 23  1  0
 16 24  1  0
  4 25  1  0
M  END
>  <SMILES>  (7) 
O=C(O)OC1CN2CCC1CC2

>  <Molecular Weight>  (7) 
171.2

>  <Substrate_ID>  (7) 
MOL0014

>  <Substrate>  (7) 


>  <Substrate_SMILES>  (7) 
O=C(OC1CN2CCC1CC2)N1CCc2ccccc2C1c1ccccc1

>  <Reaction>  (7) 
hydrolysis_(urea_or_carbonate)

>  <Score>  (7) 
0.037

>  <Reaction_Score>  (7) 
0.0101

>  <Bond_Score>  (7) 
0.1356

>  <Rank>  (7) 
6

>  <Subtype>  (7) 
3A4

>  <Subtype_Scores>  (7) 
[3A4] SOM_score: 0.1356, Reaction_score: 0.0101, Score: 0.0370


$$$$

     RDKit          2D

 31 33  0  0  0  0  0  0  0  0999 V2000
    1.5000    0.0000    0.0000 N   0  0  0  0  0  0  0  0  0  4  0  0
    0.7500   -1.2990    0.0000 C   0  0  0  0  0  0  0  0  0 20  0  0
    0.7500    1.2990    0.0000 C   0  0  0  0  0  0  0  0  0 26  0  0
   -0.7500    1.2990    0.0000 C   0  0  0  0  0  0  0  0  0 24  0  0
    0.4895    2.7762    0.0000 C   0  0  0  0  0  0  0  0  0 22  0  0
    2.1595    1.8121    0.0000 H   0  0  0  0  0  0  0  0  0  0  0  0
   -1.5000    2.5981    0.0000 C   0  0  0  0  0  0  0  0  0 13  0  0
   -1.5000    0.0000    0.0000 C   0  0  0  0  0  0  0  0  0 23  0  0
    1.6386    3.7404    0.0000 C   0  0  0  0  0  0  0  0  0 10  0  0
   -0.9200    3.2893    0.0000 C   0  0  0  0  0  0  0  0  0 11  0  0
   -3.0000    2.5981    0.0000 C   0  0  0  0  0  0  0  0  0  9  0  0
   -1.2803    3.3644    0.0000 H   0  0  0  0  0  0  0  0  0  0  0  0
   -0.7500   -1.2990    0.0000 C   0  0  0  0  0  0  0  0  0 14  0  0
   -3.0000    0.0000    0.0000 C   0  0  0  0  0  0  0  0  0 12  0  0
    1.3781    5.2176    0.0000 C   0  0  0  0  0  0  0  0  0  6  0  0
    3.0481    3.2274    0.0000 H   0  0  0  0  0  0  0  0  0  0  0  0
   -1.1805    4.7665    0.0000 C   0  0  0  0  0  0  0  0  0  7  0  0
   -2.2682    2.6318    0.0000 H   0  0  0  0  0  0  0  0  0  0  0  0
   -3.7500    1.2990    0.0000 C   0  0  0  0  0  0  0  0  0  8  0  0
   -3.7500    3.8971    0.0000 H   0  0  0  0  0  0  0  0  0  0  0  0
   -0.4895   -2.7762    0.0000 H   0  0  0  0  0  0  0  0  0  0  0  0
   -2.1595   -1.8121    0.0000 H   0  0  0  0  0  0  0  0  0  0  0  0
   -3.7500   -1.2990    0.0000 H   0  0  0  0  0  0  0  0  0  0  0  0
   -0.0314    5.7307    0.0000 C   0  0  0  0  0  0  0  0  0  5  0  0
    2.5272    6.1818    0.0000 H   0  0  0  0  0  0  0  0  0  0  0  0
   -2.5900    5.2795    0.0000 H   0  0  0  0  0  0  0  0  0  0  0  0
   -5.2500    1.2990    0.0000 H   0  0  0  0  0  0  0  0  0  0  0  0
   -0.2919    7.2079    0.0000 H   0  0  0  0  0  0  0  0  0  0  0  0
    2.1595   -1.8121    0.0000 H   0  0  0  0  0  0  0  0  0  0  0  0
    0.4895   -2.7762    0.0000 H   0  0  0  0  0  0  0  0  0  0  0  0
    3.0000    0.0000    0.0000 H   0  0  0  0  0  0  0  0  0  0  0  0
  1  2  1  0
  3  1  1  0
  4  3  1  0
  3  5  1  0
  3  6  1  1
  7  4  2  0
  4  8  1  0
  5  9  2  0
 10  5  1  0
 11  7  1  0
  7 12  1  0
 13  8  1  0
  8 14  2  0
  9 15  1  0
  9 16  1  0
 17 10  2  0
 10 18  1  0
 19 11  2  0
 11 20  1  0
  2 13  1  0
 13 21  1  0
 13 22  1  0
 14 19  1  0
 14 23  1  0
 15 24  2  0
 15 25  1  0
 24 17  1  0
 17 26  1  0
 19 27  1  0
 24 28  1  0
  2 29  1  0
  2 30  1  0
  1 31  1  0
M  END
>  <SMILES>  (8) 
c1ccc(C2NCCc3ccccc32)cc1

>  <Molecular Weight>  (8) 
209.3

>  <Substrate_ID>  (8) 
MOL0014

>  <Substrate>  (8) 


>  <Substrate_SMILES>  (8) 
O=C(OC1CN2CCC1CC2)N1CCc2ccccc2C1c1ccccc1

>  <Reaction>  (8) 
hydrolysis_(urea_or_carbonate)

>  <Score>  (8) 
0.037

>  <Reaction_Score>  (8) 
0.0101

>  <Bond_Score>  (8) 
0.1356

>  <Rank>  (8) 
6

>  <Subtype>  (8) 
3A4

>  <Subtype_Scores>  (8) 
[3A4] SOM_score: 0.1356, Reaction_score: 0.0101, Score: 0.0370


$$$$
