
     RDKit          2D

 53 56  0  0  0  0  0  0  0  0999 V2000
    6.0000   -2.5981    0.0000 C   0  0  0  0  0  0  0  0  0 37  0  0
    7.5000   -2.5981    0.0000 O   0  0  0  0  0  0  0  0  0  6  0  0
    5.2500   -3.8971    0.0000 C   0  0  0  0  0  0  0  0  0 23  0  0
    5.2500   -1.2990    0.0000 C   0  0  0  0  0  0  0  0  0 36  0  0
    3.7500   -3.8971    0.0000 C   0  0  0  0  0  0  0  0  0 18  0  0
    6.0000   -5.1962    0.0000 H   0  0  0  0  0  0  0  0  0  0  0  0
    6.0000   -0.0000    0.0000 Cl  0  0  0  0  0  0  0  0  0  1  0  0
    3.7500   -1.2990    0.0000 C   0  0  0  0  0  0  0  0  0 22  0  0
    3.0000   -2.5981    0.0000 C   0  0  0  0  0  0  0  0  0 32  0  0
    3.0000   -5.1962    0.0000 H   0  0  0  0  0  0  0  0  0  0  0  0
    3.0000   -0.0000    0.0000 H   0  0  0  0  0  0  0  0  0  0  0  0
    1.5000   -2.5981    0.0000 N   0  0  0  0  0  0  0  0  0 11  0  0
    0.7500   -1.2990    0.0000 C   0  0  0  0  0  0  0  0  0 38  0  0
    0.7500   -3.8971    0.0000 H   0  0  0  0  0  0  0  0  0  0  0  0
    1.5000    0.0000    0.0000 N   0  0  0  0  0  0  0  0  0  8  0  0
   -0.7500   -1.2990    0.0000 C   0  0  0  0  0  0  0  0  0 40  0  0
    0.7500    1.2990    0.0000 C   0  0  0  0  0  0  0  0  0 14  0  0
   -1.5000   -2.5981    0.0000 C   0  0  0  0  0  0  0  0  0 25  0  0
   -1.5000    0.0000    0.0000 C   0  0  0  0  0  0  0  0  0 39  0  0
   -0.7500    1.2990    0.0000 N   0  0  0  0  0  0  0  0  0  9  0  0
    1.5000    2.5981    0.0000 H   0  0  0  0  0  0  0  0  0  0  0  0
   -3.0000   -2.5981    0.0000 C   0  0  0  0  0  0  0  0  0 33  0  0
   -0.7500   -3.8971    0.0000 H   0  0  0  0  0  0  0  0  0  0  0  0
   -3.0000    0.0000    0.0000 C   0  0  0  0  0  0  0  0  0 24  0  0
   -3.7500   -1.2990    0.0000 C   0  0  0  0  0  0  0  0  0 19  0  0
   -3.7500   -3.8971    0.0000 C   0  0  0  0  0  0  0  0  0 35  0  0
   -3.7500    1.2990    0.0000 H   0  0  0  0  0  0  0  0  0  0  0  0
   -5.2500   -1.2990    0.0000 H   0  0  0  0  0  0  0  0  0  0  0  0
   -3.1399   -5.2674    0.0000 O   0  0  0  0  0  0  0  0  0  7  0  0
   -5.2418   -4.0539    0.0000 C   0  0  0  0  0  0  0  0  0 21  0  0
   -4.2546   -6.2711    0.0000 C   0  0  0  0  0  0  0  0  0 34  0  0
   -5.5537   -5.5211    0.0000 C   0  0  0  0  0  0  0  0  0 20  0  0
   -6.2455   -2.9392    0.0000 H   0  0  0  0  0  0  0  0  0  0  0  0
   -4.0978   -7.7629    0.0000 C   0  0  0  0  0  0  0  0  0 28  0  0
   -6.9240   -6.1312    0.0000 H   0  0  0  0  0  0  0  0  0  0  0  0
   -3.9410   -9.2547    0.0000 N   0  0  0  0  0  0  0  0  0 10  0  0
   -5.5896   -7.9197    0.0000 H   0  0  0  0  0  0  0  0  0  0  0  0
   -2.6060   -7.6061    0.0000 H   0  0  0  0  0  0  0  0  0  0  0  0
   -2.5707   -9.8648    0.0000 C   0  0  0  0  0  0  0  0  0 26  0  0
   -5.1546  -10.1364    0.0000 H   0  0  0  0  0  0  0  0  0  0  0  0
   -1.2004  -10.4749    0.0000 C   0  0  0  0  0  0  0  0  0 29  0  0
   -1.9606   -8.4945    0.0000 H   0  0  0  0  0  0  0  0  0  0  0  0
   -3.1808  -11.2351    0.0000 H   0  0  0  0  0  0  0  0  0  0  0  0
    0.1699  -11.0850    0.0000 S   0  0  0  0  0  6  0  0  0  2  0  0
   -0.5903   -9.1046    0.0000 H   0  0  0  0  0  0  0  0  0  0  0  0
   -1.8105  -11.8452    0.0000 H   0  0  0  0  0  0  0  0  0  0  0  0
   -0.4402  -12.4553    0.0000 O   0  0  0  0  0  0  0  0  0  4  0  0
    0.7800   -9.7147    0.0000 O   0  0  0  0  0  0  0  0  0  5  0  0
    1.5402  -11.6951    0.0000 C   0  0  0  0  0  0  0  0  0 12  0  0
    2.9106  -12.3052    0.0000 H   0  0  0  0  0  0  0  0  0  0  0  0
    2.1504  -10.3248    0.0000 H   0  0  0  0  0  0  0  0  0  0  0  0
    0.9301  -13.0654    0.0000 H   0  0  0  0  0  0  0  0  0  0  0  0
    8.2500   -3.8971    0.0000 H   0  0  0  0  0  0  0  0  0  0  0  0
  1  2  1  0
  3  1  2  0
  1  4  1  0
  5  3  1  0
  3  6  1  0
  7  4  1  0
  4  8  2  0
  9  5  2  0
  5 10  1  0
  8  9  1  0
  8 11  1  0
  9 12  1  0
 12 13  1  0
 12 14  1  0
 13 15  2  0
 16 13  1  0
 15 17  1  0
 18 16  2  0
 16 19  1  0
 17 20  2  0
 17 21  1  0
 22 18  1  0
 18 23  1  0
 20 19  1  0
 19 24  2  0
 25 22  2  0
 22 26  1  0
 24 25  1  0
 24 27  1  0
 25 28  1  0
 26 29  1  0
 30 26  2  0
 29 31  1  0
 32 30  1  0
 30 33  1  0
 31 34  1  0
 31 32  2  0
 32 35  1  0
 34 36  1  0
 34 37  1  0
 34 38  1  0
 36 39  1  0
 36 40  1  0
 39 41  1  0
 39 42  1  0
 39 43  1  0
 41 44  1  0
 41 45  1  0
 41 46  1  0
 44 47  2  0
 44 48  2  0
 44 49  1  0
 49 50  1  0
 49 51  1  0
 49 52  1  0
  2 53  1  0
M  END
>  <SMILES>  (1) 
CS(=O)(=O)CCNCc1ccc(-c2ccc3ncnc(Nc4ccc(O)c(Cl)c4)c3c2)o1

>  <Molecular Weight>  (1) 
473.0

>  <Substrate_ID>  (1) 
MOL0070

>  <Substrate>  (1) 


>  <Substrate_SMILES>  (1) 
CS(=O)(=O)CCNCc1ccc(-c2ccc3ncnc(Nc4ccc(OCc5cccc(F)c5)c(Cl)c4)c3c2)o1

>  <Reaction>  (1) 
O-dealkylation_(aromatic)

>  <Score>  (1) 
0.4349

>  <Reaction_Score>  (1) 
0.3869

>  <Bond_Score>  (1) 
0.489

>  <Rank>  (1) 
1

>  <Subtype>  (1) 
2C8, 2C9, 3A4

>  <Subtype_Scores>  (1) 
[2C8] SOM_score: 0.2566, Reaction_score: 0.3869, Score: 0.3151
[2C9] SOM_score: 0.1569, Reaction_score: 0.3869, Score: 0.2464
[3A4] SOM_score: 0.4890, Reaction_score: 0.3869, Score: 0.4349


$$$$

     RDKit          2D

 16 16  0  0  0  0  0  0  0  0999 V2000
    4.5000    0.0000    0.0000 O   0  0  0  0  0  0  0  0  0 41  0  0
    3.0000    0.0000    0.0000 C   0  0  0  0  0  0  0  0  0 27  0  0
    1.5000    0.0000    0.0000 C   0  0  0  0  0  0  0  0  0 31  0  0
    3.0000   -1.5000    0.0000 H   0  0  0  0  0  0  0  0  0  0  0  0
    3.0000    1.5000    0.0000 H   0  0  0  0  0  0  0  0  0  0  0  0
    0.7500   -1.2990    0.0000 C   0  0  0  0  0  0  0  0  0 16  0  0
    0.7500    1.2990    0.0000 C   0  0  0  0  0  0  0  0  0 17  0  0
   -0.7500   -1.2990    0.0000 C   0  0  0  0  0  0  0  0  0 13  0  0
    1.5000   -2.5981    0.0000 H   0  0  0  0  0  0  0  0  0  0  0  0
   -0.7500    1.2990    0.0000 C   0  0  0  0  0  0  0  0  0 30  0  0
    1.5000    2.5981    0.0000 H   0  0  0  0  0  0  0  0  0  0  0  0
   -1.5000    0.0000    0.0000 C   0  0  0  0  0  0  0  0  0 15  0  0
   -1.5000   -2.5981    0.0000 H   0  0  0  0  0  0  0  0  0  0  0  0
   -1.5000    2.5981    0.0000 F   0  0  0  0  0  0  0  0  0  3  0  0
   -3.0000    0.0000    0.0000 H   0  0  0  0  0  0  0  0  0  0  0  0
    5.2500    1.2990    0.0000 H   0  0  0  0  0  0  0  0  0  0  0  0
  1  2  1  0
  2  3  1  0
  2  4  1  0
  2  5  1  0
  3  6  2  0
  7  3  1  0
  6  8  1  0
  6  9  1  0
 10  7  2  0
  7 11  1  0
  8 12  2  0
  8 13  1  0
 12 10  1  0
 10 14  1  0
 12 15  1  0
  1 16  1  0
M  END
>  <SMILES>  (2) 
OCc1cccc(F)c1

>  <Molecular Weight>  (2) 
126.1

>  <Substrate_ID>  (2) 
MOL0070

>  <Substrate>  (2) 


>  <Substrate_SMILES>  (2) 
CS(=O)(=O)CCNCc1ccc(-c2ccc3ncnc(Nc4ccc(OCc5cccc(F)c5)c(Cl)c4)c3c2)o1

>  <Reaction>  (2) 
O-dealkylation_(aromatic)

>  <Score>  (2) 
0.4349

>  <Reaction_Score>  (2) 
0.3869

>  <Bond_Score>  (2) 
0.489

>  <Rank>  (2) 
1

>  <Subtype>  (2) 
2C8, 2C9, 3A4

>  <Subtype_Scores>  (2) 
[2C8] SOM_score: 0.2566, Reaction_score: 0.3869, Score: 0.3151
[2C9] SOM_score: 0.1569, Reaction_score: 0.3869, Score: 0.2464
[3A4] SOM_score: 0.4890, Reaction_score: 0.3869, Score: 0.4349


$$$$

     RDKit          2D

 54 58  0  0  0  0  0  0  0  0999 V2000
   -1.8478   -9.0619    0.0000 C   0  0  0  0  0  0  0  0  0 28  0  0
   -1.6910  -10.5537    0.0000 N   0  0  0  0  0  0  0  0  0 10  0  0
   -2.0046   -7.5702    0.0000 C   0  0  0  0  0  0  0  0  0 34  0  0
   -3.3396   -9.2187    0.0000 H   0  0  0  0  0  0  0  0  0  0  0  0
   -0.3560   -8.9052    0.0000 H   0  0  0  0  0  0  0  0  0  0  0  0
   -0.8899   -6.5665    0.0000 O   0  0  0  0  0  0  0  0  0  7  0  0
   -3.3037   -6.8202    0.0000 C   0  0  0  0  0  0  0  0  0 20  0  0
   -1.5000   -5.1962    0.0000 C   0  0  0  0  0  0  0  0  0 35  0  0
   -2.9918   -5.3529    0.0000 C   0  0  0  0  0  0  0  0  0 21  0  0
   -4.6740   -7.4303    0.0000 H   0  0  0  0  0  0  0  0  0  0  0  0
   -0.7500   -3.8971    0.0000 C   0  0  0  0  0  0  0  0  0 33  0  0
   -3.9955   -4.2382    0.0000 H   0  0  0  0  0  0  0  0  0  0  0  0
    0.7500   -3.8971    0.0000 C   0  0  0  0  0  0  0  0  0 19  0  0
   -1.5000   -2.5981    0.0000 C   0  0  0  0  0  0  0  0  0 25  0  0
    1.5000   -2.5981    0.0000 C   0  0  0  0  0  0  0  0  0 24  0  0
    1.5000   -5.1962    0.0000 H   0  0  0  0  0  0  0  0  0  0  0  0
   -0.7500   -1.2990    0.0000 C   0  0  0  0  0  0  0  0  0 40  0  0
   -3.0000   -2.5981    0.0000 H   0  0  0  0  0  0  0  0  0  0  0  0
    0.7500   -1.2990    0.0000 C   0  0  0  0  0  0  0  0  0 39  0  0
    3.0000   -2.5981    0.0000 H   0  0  0  0  0  0  0  0  0  0  0  0
   -1.5000    0.0000    0.0000 C   0  0  0  0  0  0  0  0  0 38  0  0
    1.5000    0.0000    0.0000 N   0  0  0  0  0  0  0  0  0  9  0  0
   -3.0000    0.0000    0.0000 N   0  0  0  0  0  0  0  0  0 11  0  0
   -0.7500    1.2990    0.0000 N   0  0  0  0  0  0  0  0  0  8  0  0
    0.7500    1.2990    0.0000 C   0  0  0  0  0  0  0  0  0 14  0  0
   -3.7500    1.2990    0.0000 C   0  0  0  0  0  0  0  0  0 32  0  0
   -3.7500   -1.2990    0.0000 H   0  0  0  0  0  0  0  0  0  0  0  0
    1.5000    2.5981    0.0000 H   0  0  0  0  0  0  0  0  0  0  0  0
   -3.0000    2.5981    0.0000 C   0  0  0  0  0  0  0  0  0 22  0  0
   -5.2500    1.2990    0.0000 C   0  0  0  0  0  0  0  0  0 18  0  0
   -3.7500    3.8971    0.0000 C   0  0  0  0  0  0  0  0  0 36  0  0
   -1.5000    2.5981    0.0000 H   0  0  0  0  0  0  0  0  0  0  0  0
   -6.0000    2.5981    0.0000 C   0  0  0  0  0  0  0  0  0 23  0  0
   -6.0000    0.0000    0.0000 H   0  0  0  0  0  0  0  0  0  0  0  0
   -3.0000    5.1962    0.0000 Cl  0  0  0  0  0  0  0  0  0  1  0  0
   -5.2500    3.8971    0.0000 C   0  0  0  0  0  0  0  0  0 37  0  0
   -7.5000    2.5981    0.0000 H   0  0  0  0  0  0  0  0  0  0  0  0
   -6.0000    5.1962    0.0000 O   0  0  0  0  0  0  0  0  0  6  0  0
   -5.2500    6.4952    0.0000 C   0  0  0  0  0  0  0  0  0 27  0  0
   -4.5000    7.7942    0.0000 C   0  0  0  0  0  0  0  0  0 31  0  0
   -3.9510    5.7452    0.0000 H   0  0  0  0  0  0  0  0  0  0  0  0
   -6.5490    7.2452    0.0000 H   0  0  0  0  0  0  0  0  0  0  0  0
   -3.0000    7.7942    0.0000 C   0  0  0  0  0  0  0  0  0 16  0  0
   -5.2500    9.0933    0.0000 C   0  0  0  0  0  0  0  0  0 17  0  0
   -2.2500    9.0933    0.0000 C   0  0  0  0  0  0  0  0  0 13  0  0
   -2.2500    6.4952    0.0000 H   0  0  0  0  0  0  0  0  0  0  0  0
   -4.5000   10.3923    0.0000 C   0  0  0  0  0  0  0  0  0 30  0  0
   -6.7500    9.0933    0.0000 H   0  0  0  0  0  0  0  0  0  0  0  0
   -3.0000   10.3923    0.0000 C   0  0  0  0  0  0  0  0  0 15  0  0
   -0.7500    9.0933    0.0000 H   0  0  0  0  0  0  0  0  0  0  0  0
   -5.2500   11.6913    0.0000 F   0  0  0  0  0  0  0  0  0  3  0  0
   -2.2500   11.6913    0.0000 H   0  0  0  0  0  0  0  0  0  0  0  0
   -0.3207  -11.1638    0.0000 H   0  0  0  0  0  0  0  0  0  0  0  0
   -2.9046  -11.4354    0.0000 H   0  0  0  0  0  0  0  0  0  0  0  0
  1  2  1  0
  3  1  1  0
  1  4  1  0
  1  5  1  0
  6  3  1  0
  3  7  2  0
  8  6  1  0
  7  9  1  0
  7 10  1  0
 11  8  1  0
  9  8  2  0
  9 12  1  0
 13 11  2  0
 11 14  1  0
 15 13  1  0
 13 16  1  0
 14 17  2  0
 14 18  1  0
 19 15  2  0
 15 20  1  0
 17 21  1  0
 17 19  1  0
 22 19  1  0
 23 21  1  0
 21 24  2  0
 25 22  2  0
 26 23  1  0
 23 27  1  0
 24 25  1  0
 25 28  1  0
 29 26  2  0
 26 30  1  0
 31 29  1  0
 29 32  1  0
 30 33  2  0
 30 34  1  0
 35 31  1  0
 36 31  2  0
 33 36  1  0
 33 37  1  0
 36 38  1  0
 38 39  1  0
 39 40  1  0
 39 41  1  0
 39 42  1  0
 40 43  2  0
 44 40  1  0
 43 45  1  0
 43 46  1  0
 47 44  2  0
 44 48  1  0
 45 49  2  0
 45 50  1  0
 49 47  1  0
 47 51  1  0
 49 52  1  0
  2 53  1  0
  2 54  1  0
M  END
>  <SMILES>  (3) 
NCc1ccc(-c2ccc3ncnc(Nc4ccc(OCc5cccc(F)c5)c(Cl)c4)c3c2)o1

>  <Molecular Weight>  (3) 
474.9

>  <Substrate_ID>  (3) 
MOL0070

>  <Substrate>  (3) 


>  <Substrate_SMILES>  (3) 
CS(=O)(=O)CCNCc1ccc(-c2ccc3ncnc(Nc4ccc(OCc5cccc(F)c5)c(Cl)c4)c3c2)o1

>  <Reaction>  (3) 
N-dealkylation_(R-NHCH2-alkyl)

>  <Score>  (3) 
0.3929

>  <Reaction_Score>  (3) 
0.3366

>  <Bond_Score>  (3) 
0.4586

>  <Rank>  (3) 
2

>  <Subtype>  (3) 
2C8, 3A4

>  <Subtype_Scores>  (3) 
[2C8] SOM_score: 0.1442, Reaction_score: 0.3366, Score: 0.2203
[3A4] SOM_score: 0.4586, Reaction_score: 0.3366, Score: 0.3929


$$$$

     RDKit          2D

 15 14  0  0  0  0  0  0  0  0999 V2000
   -1.5000    0.0000    0.0000 O   0  0  0  0  0  0  0  0  0 41  0  0
    0.0000    0.0000    0.0000 C   0  0  0  0  0  0  0  0  0 26  0  0
    1.5000    0.0000    0.0000 C   0  0  0  0  0  0  0  0  0 29  0  0
    0.0000    1.5000    0.0000 H   0  0  0  0  0  0  0  0  0  0  0  0
   -0.0000   -1.5000    0.0000 H   0  0  0  0  0  0  0  0  0  0  0  0
    3.0000    0.0000    0.0000 S   0  0  0  0  0  6  0  0  0  2  0  0
    1.5000   -1.5000    0.0000 H   0  0  0  0  0  0  0  0  0  0  0  0
    1.5000    1.5000    0.0000 H   0  0  0  0  0  0  0  0  0  0  0  0
    3.0000    1.5000    0.0000 O   0  0  0  0  0  0  0  0  0  4  0  0
    3.0000   -1.5000    0.0000 O   0  0  0  0  0  0  0  0  0  5  0  0
    4.5000    0.0000    0.0000 C   0  0  0  0  0  0  0  0  0 12  0  0
    6.0000    0.0000    0.0000 H   0  0  0  0  0  0  0  0  0  0  0  0
    4.5000   -1.5000    0.0000 H   0  0  0  0  0  0  0  0  0  0  0  0
    4.5000    1.5000    0.0000 H   0  0  0  0  0  0  0  0  0  0  0  0
   -2.2500   -1.2990    0.0000 H   0  0  0  0  0  0  0  0  0  0  0  0
  1  2  1  0
  2  3  1  0
  2  4  1  0
  2  5  1  0
  3  6  1  0
  3  7  1  0
  3  8  1  0
  6  9  2  0
  6 10  2  0
  6 11  1  0
 11 12  1  0
 11 13  1  0
 11 14  1  0
  1 15  1  0
M  END
>  <SMILES>  (4) 
CS(=O)(=O)CCO

>  <Molecular Weight>  (4) 
124.2

>  <Substrate_ID>  (4) 
MOL0070

>  <Substrate>  (4) 


>  <Substrate_SMILES>  (4) 
CS(=O)(=O)CCNCc1ccc(-c2ccc3ncnc(Nc4ccc(OCc5cccc(F)c5)c(Cl)c4)c3c2)o1

>  <Reaction>  (4) 
N-dealkylation_(R-NHCH2-alkyl)

>  <Score>  (4) 
0.3929

>  <Reaction_Score>  (4) 
0.3366

>  <Bond_Score>  (4) 
0.4586

>  <Rank>  (4) 
2

>  <Subtype>  (4) 
2C8, 3A4

>  <Subtype_Scores>  (4) 
[2C8] SOM_score: 0.1442, Reaction_score: 0.3366, Score: 0.2203
[3A4] SOM_score: 0.4586, Reaction_score: 0.3366, Score: 0.3929


$$$$

     RDKit          2D

 16 15  0  0  0  0  0  0  0  0999 V2000
    0.0000    0.0000    0.0000 C   0  0  0  0  0  0  0  0  0 26  0  0
   -1.5000    0.0000    0.0000 N   0  0  0  0  0  0  0  0  0 10  0  0
    1.5000    0.0000    0.0000 C   0  0  0  0  0  0  0  0  0 29  0  0
    0.0000    1.5000    0.0000 H   0  0  0  0  0  0  0  0  0  0  0  0
   -0.0000   -1.5000    0.0000 H   0  0  0  0  0  0  0  0  0  0  0  0
    3.0000    0.0000    0.0000 S   0  0  0  0  0  6  0  0  0  2  0  0
    1.5000   -1.5000    0.0000 H   0  0  0  0  0  0  0  0  0  0  0  0
    1.5000    1.5000    0.0000 H   0  0  0  0  0  0  0  0  0  0  0  0
    3.0000    1.5000    0.0000 O   0  0  0  0  0  0  0  0  0  4  0  0
    3.0000   -1.5000    0.0000 O   0  0  0  0  0  0  0  0  0  5  0  0
    4.5000    0.0000    0.0000 C   0  0  0  0  0  0  0  0  0 12  0  0
    6.0000    0.0000    0.0000 H   0  0  0  0  0  0  0  0  0  0  0  0
    4.5000   -1.5000    0.0000 H   0  0  0  0  0  0  0  0  0  0  0  0
    4.5000    1.5000    0.0000 H   0  0  0  0  0  0  0  0  0  0  0  0
   -2.2500   -1.2990    0.0000 H   0  0  0  0  0  0  0  0  0  0  0  0
   -2.2500    1.2990    0.0000 H   0  0  0  0  0  0  0  0  0  0  0  0
  1  2  1  0
  1  3  1  0
  1  4  1  0
  1  5  1  0
  3  6  1  0
  3  7  1  0
  3  8  1  0
  6  9  2  0
  6 10  2  0
  6 11  1  0
 11 12  1  0
 11 13  1  0
 11 14  1  0
  2 15  1  0
  2 16  1  0
M  END
>  <SMILES>  (5) 
CS(=O)(=O)CCN

>  <Molecular Weight>  (5) 
123.2

>  <Substrate_ID>  (5) 
MOL0070

>  <Substrate>  (5) 


>  <Substrate_SMILES>  (5) 
CS(=O)(=O)CCNCc1ccc(-c2ccc3ncnc(Nc4ccc(OCc5cccc(F)c5)c(Cl)c4)c3c2)o1

>  <Reaction>  (5) 
N-dealkylation_(R-NHCH2-alkyl)

>  <Score>  (5) 
0.3823

>  <Reaction_Score>  (5) 
0.327

>  <Bond_Score>  (5) 
0.447

>  <Rank>  (5) 
3

>  <Subtype>  (5) 
2C8, 3A4

>  <Subtype_Scores>  (5) 
[2C8] SOM_score: 0.1431, Reaction_score: 0.3270, Score: 0.2163
[3A4] SOM_score: 0.4470, Reaction_score: 0.3270, Score: 0.3823


$$$$

     RDKit          2D

 53 57  0  0  0  0  0  0  0  0999 V2000
   -1.6910  -10.5537    0.0000 O   0  0  0  0  0  0  0  0  0 41  0  0
   -1.8478   -9.0619    0.0000 C   0  0  0  0  0  0  0  0  0 28  0  0
   -2.0046   -7.5702    0.0000 C   0  0  0  0  0  0  0  0  0 34  0  0
   -3.3396   -9.2187    0.0000 H   0  0  0  0  0  0  0  0  0  0  0  0
   -0.3560   -8.9052    0.0000 H   0  0  0  0  0  0  0  0  0  0  0  0
   -0.8899   -6.5665    0.0000 O   0  0  0  0  0  0  0  0  0  7  0  0
   -3.3037   -6.8202    0.0000 C   0  0  0  0  0  0  0  0  0 20  0  0
   -1.5000   -5.1962    0.0000 C   0  0  0  0  0  0  0  0  0 35  0  0
   -2.9918   -5.3529    0.0000 C   0  0  0  0  0  0  0  0  0 21  0  0
   -4.6740   -7.4303    0.0000 H   0  0  0  0  0  0  0  0  0  0  0  0
   -0.7500   -3.8971    0.0000 C   0  0  0  0  0  0  0  0  0 33  0  0
   -3.9955   -4.2382    0.0000 H   0  0  0  0  0  0  0  0  0  0  0  0
    0.7500   -3.8971    0.0000 C   0  0  0  0  0  0  0  0  0 19  0  0
   -1.5000   -2.5981    0.0000 C   0  0  0  0  0  0  0  0  0 25  0  0
    1.5000   -2.5981    0.0000 C   0  0  0  0  0  0  0  0  0 24  0  0
    1.5000   -5.1962    0.0000 H   0  0  0  0  0  0  0  0  0  0  0  0
   -0.7500   -1.2990    0.0000 C   0  0  0  0  0  0  0  0  0 40  0  0
   -3.0000   -2.5981    0.0000 H   0  0  0  0  0  0  0  0  0  0  0  0
    0.7500   -1.2990    0.0000 C   0  0  0  0  0  0  0  0  0 39  0  0
    3.0000   -2.5981    0.0000 H   0  0  0  0  0  0  0  0  0  0  0  0
   -1.5000    0.0000    0.0000 C   0  0  0  0  0  0  0  0  0 38  0  0
    1.5000    0.0000    0.0000 N   0  0  0  0  0  0  0  0  0  9  0  0
   -3.0000    0.0000    0.0000 N   0  0  0  0  0  0  0  0  0 11  0  0
   -0.7500    1.2990    0.0000 N   0  0  0  0  0  0  0  0  0  8  0  0
    0.7500    1.2990    0.0000 C   0  0  0  0  0  0  0  0  0 14  0  0
   -3.7500    1.2990    0.0000 C   0  0  0  0  0  0  0  0  0 32  0  0
   -3.7500   -1.2990    0.0000 H   0  0  0  0  0  0  0  0  0  0  0  0
    1.5000    2.5981    0.0000 H   0  0  0  0  0  0  0  0  0  0  0  0
   -3.0000    2.5981    0.0000 C   0  0  0  0  0  0  0  0  0 22  0  0
   -5.2500    1.2990    0.0000 C   0  0  0  0  0  0  0  0  0 18  0  0
   -3.7500    3.8971    0.0000 C   0  0  0  0  0  0  0  0  0 36  0  0
   -1.5000    2.5981    0.0000 H   0  0  0  0  0  0  0  0  0  0  0  0
   -6.0000    2.5981    0.0000 C   0  0  0  0  0  0  0  0  0 23  0  0
   -6.0000    0.0000    0.0000 H   0  0  0  0  0  0  0  0  0  0  0  0
   -3.0000    5.1962    0.0000 Cl  0  0  0  0  0  0  0  0  0  1  0  0
   -5.2500    3.8971    0.0000 C   0  0  0  0  0  0  0  0  0 37  0  0
   -7.5000    2.5981    0.0000 H   0  0  0  0  0  0  0  0  0  0  0  0
   -6.0000    5.1962    0.0000 O   0  0  0  0  0  0  0  0  0  6  0  0
   -5.2500    6.4952    0.0000 C   0  0  0  0  0  0  0  0  0 27  0  0
   -4.5000    7.7942    0.0000 C   0  0  0  0  0  0  0  0  0 31  0  0
   -3.9510    5.7452    0.0000 H   0  0  0  0  0  0  0  0  0  0  0  0
   -6.5490    7.2452    0.0000 H   0  0  0  0  0  0  0  0  0  0  0  0
   -3.0000    7.7942    0.0000 C   0  0  0  0  0  0  0  0  0 16  0  0
   -5.2500    9.0933    0.0000 C   0  0  0  0  0  0  0  0  0 17  0  0
   -2.2500    9.0933    0.0000 C   0  0  0  0  0  0  0  0  0 13  0  0
   -2.2500    6.4952    0.0000 H   0  0  0  0  0  0  0  0  0  0  0  0
   -4.5000   10.3923    0.0000 C   0  0  0  0  0  0  0  0  0 30  0  0
   -6.7500    9.0933    0.0000 H   0  0  0  0  0  0  0  0  0  0  0  0
   -3.0000   10.3923    0.0000 C   0  0  0  0  0  0  0  0  0 15  0  0
   -0.7500    9.0933    0.0000 H   0  0  0  0  0  0  0  0  0  0  0  0
   -5.2500   11.6913    0.0000 F   0  0  0  0  0  0  0  0  0  3  0  0
   -2.2500   11.6913    0.0000 H   0  0  0  0  0  0  0  0  0  0  0  0
   -0.3207  -11.1638    0.0000 H   0  0  0  0  0  0  0  0  0  0  0  0
  1  2  1  0
  2  3  1  0
  2  4  1  0
  2  5  1  0
  6  3  1  0
  3  7  2  0
  8  6  1  0
  7  9  1  0
  7 10  1  0
 11  8  1  0
  9  8  2  0
  9 12  1  0
 13 11  2  0
 11 14  1  0
 15 13  1  0
 13 16  1  0
 14 17  2  0
 14 18  1  0
 19 15  2  0
 15 20  1  0
 17 21  1  0
 17 19  1  0
 22 19  1  0
 23 21  1  0
 21 24  2  0
 25 22  2  0
 26 23  1  0
 23 27  1  0
 24 25  1  0
 25 28  1  0
 29 26  2  0
 26 30  1  0
 31 29  1  0
 29 32  1  0
 30 33  2  0
 30 34  1  0
 35 31  1  0
 36 31  2  0
 33 36  1  0
 33 37  1  0
 36 38  1  0
 38 39  1  0
 39 40  1  0
 39 41  1  0
 39 42  1  0
 40 43  2  0
 44 40  1  0
 43 45  1  0
 43 46  1  0
 47 44  2  0
 44 48  1  0
 45 49  2  0
 45 50  1  0
 49 47  1  0
 47 51  1  0
 49 52  1  0
  1 53  1  0
M  END
>  <SMILES>  (6) 
OCc1ccc(-c2ccc3ncnc(Nc4ccc(OCc5cccc(F)c5)c(Cl)c4)c3c2)o1

>  <Molecular Weight>  (6) 
475.9

>  <Substrate_ID>  (6) 
MOL0070

>  <Substrate>  (6) 


>  <Substrate_SMILES>  (6) 
CS(=O)(=O)CCNCc1ccc(-c2ccc3ncnc(Nc4ccc(OCc5cccc(F)c5)c(Cl)c4)c3c2)o1

>  <Reaction>  (6) 
N-dealkylation_(R-NHCH2-alkyl)

>  <Score>  (6) 
0.3823

>  <Reaction_Score>  (6) 
0.327

>  <Bond_Score>  (6) 
0.447

>  <Rank>  (6) 
3

>  <Subtype>  (6) 
2C8, 3A4

>  <Subtype_Scores>  (6) 
[2C8] SOM_score: 0.1431, Reaction_score: 0.3270, Score: 0.2163
[3A4] SOM_score: 0.4470, Reaction_score: 0.3270, Score: 0.3823


$$$$

     RDKit          2D

 67 71  0  0  0  0  0  0  0  0999 V2000
   -1.6910  -10.5537    0.0000 N   0  0  0  0  0  0  0  0  0 10  0  0
   -2.9046  -11.4354    0.0000 O   0  0  0  0  0  0  0  0  0 41  0  0
   -2.7478  -12.9272    0.0000 H   0  0  0  0  0  0  0  0  0  0  0  0
   -1.8478   -9.0619    0.0000 C   0  0  0  0  0  0  0  0  0 28  0  0
   -0.3207  -11.1638    0.0000 C   0  0  0  0  0  0  0  0  0 26  0  0
    1.0496  -11.7739    0.0000 C   0  0  0  0  0  0  0  0  0 29  0  0
    0.2894   -9.7935    0.0000 H   0  0  0  0  0  0  0  0  0  0  0  0
   -0.9308  -12.5342    0.0000 H   0  0  0  0  0  0  0  0  0  0  0  0
    2.4199  -12.3840    0.0000 S   0  0  0  0  0  6  0  0  0  2  0  0
    1.6597  -10.4036    0.0000 H   0  0  0  0  0  0  0  0  0  0  0  0
    0.4395  -13.1443    0.0000 H   0  0  0  0  0  0  0  0  0  0  0  0
    1.8098  -13.7544    0.0000 O   0  0  0  0  0  0  0  0  0  4  0  0
    3.0300  -11.0137    0.0000 O   0  0  0  0  0  0  0  0  0  5  0  0
    3.7902  -12.9942    0.0000 C   0  0  0  0  0  0  0  0  0 12  0  0
    5.1606  -13.6043    0.0000 H   0  0  0  0  0  0  0  0  0  0  0  0
    4.4004  -11.6238    0.0000 H   0  0  0  0  0  0  0  0  0  0  0  0
    3.1801  -14.3645    0.0000 H   0  0  0  0  0  0  0  0  0  0  0  0
   -2.0046   -7.5702    0.0000 C   0  0  0  0  0  0  0  0  0 34  0  0
   -3.3396   -9.2187    0.0000 H   0  0  0  0  0  0  0  0  0  0  0  0
   -0.3560   -8.9052    0.0000 H   0  0  0  0  0  0  0  0  0  0  0  0
   -0.8899   -6.5665    0.0000 O   0  0  0  0  0  0  0  0  0  7  0  0
   -3.3037   -6.8202    0.0000 C   0  0  0  0  0  0  0  0  0 20  0  0
   -1.5000   -5.1962    0.0000 C   0  0  0  0  0  0  0  0  0 35  0  0
   -2.9918   -5.3529    0.0000 C   0  0  0  0  0  0  0  0  0 21  0  0
   -4.6740   -7.4303    0.0000 H   0  0  0  0  0  0  0  0  0  0  0  0
   -0.7500   -3.8971    0.0000 C   0  0  0  0  0  0  0  0  0 33  0  0
   -3.9955   -4.2382    0.0000 H   0  0  0  0  0  0  0  0  0  0  0  0
    0.7500   -3.8971    0.0000 C   0  0  0  0  0  0  0  0  0 19  0  0
   -1.5000   -2.5981    0.0000 C   0  0  0  0  0  0  0  0  0 25  0  0
    1.5000   -2.5981    0.0000 C   0  0  0  0  0  0  0  0  0 24  0  0
    1.5000   -5.1962    0.0000 H   0  0  0  0  0  0  0  0  0  0  0  0
   -0.7500   -1.2990    0.0000 C   0  0  0  0  0  0  0  0  0 40  0  0
   -3.0000   -2.5981    0.0000 H   0  0  0  0  0  0  0  0  0  0  0  0
    0.7500   -1.2990    0.0000 C   0  0  0  0  0  0  0  0  0 39  0  0
    3.0000   -2.5981    0.0000 H   0  0  0  0  0  0  0  0  0  0  0  0
   -1.5000    0.0000    0.0000 C   0  0  0  0  0  0  0  0  0 38  0  0
    1.5000    0.0000    0.0000 N   0  0  0  0  0  0  0  0  0  9  0  0
   -3.0000    0.0000    0.0000 N   0  0  0  0  0  0  0  0  0 11  0  0
   -0.7500    1.2990    0.0000 N   0  0  0  0  0  0  0  0  0  8  0  0
    0.7500    1.2990    0.0000 C   0  0  0  0  0  0  0  0  0 14  0  0
   -3.7500    1.2990    0.0000 C   0  0  0  0  0  0  0  0  0 32  0  0
   -3.7500   -1.2990    0.0000 H   0  0  0  0  0  0  0  0  0  0  0  0
    1.5000    2.5981    0.0000 H   0  0  0  0  0  0  0  0  0  0  0  0
   -3.0000    2.5981    0.0000 C   0  0  0  0  0  0  0  0  0 22  0  0
   -5.2500    1.2990    0.0000 C   0  0  0  0  0  0  0  0  0 18  0  0
   -3.7500    3.8971    0.0000 C   0  0  0  0  0  0  0  0  0 36  0  0
   -1.5000    2.5981    0.0000 H   0  0  0  0  0  0  0  0  0  0  0  0
   -6.0000    2.5981    0.0000 C   0  0  0  0  0  0  0  0  0 23  0  0
   -6.0000    0.0000    0.0000 H   0  0  0  0  0  0  0  0  0  0  0  0
   -3.0000    5.1962    0.0000 Cl  0  0  0  0  0  0  0  0  0  1  0  0
   -5.2500    3.8971    0.0000 C   0  0  0  0  0  0  0  0  0 37  0  0
   -7.5000    2.5981    0.0000 H   0  0  0  0  0  0  0  0  0  0  0  0
   -6.0000    5.1962    0.0000 O   0  0  0  0  0  0  0  0  0  6  0  0
   -5.2500    6.4952    0.0000 C   0  0  0  0  0  0  0  0  0 27  0  0
   -4.5000    7.7942    0.0000 C   0  0  0  0  0  0  0  0  0 31  0  0
   -3.9510    5.7452    0.0000 H   0  0  0  0  0  0  0  0  0  0  0  0
   -6.5490    7.2452    0.0000 H   0  0  0  0  0  0  0  0  0  0  0  0
   -3.0000    7.7942    0.0000 C   0  0  0  0  0  0  0  0  0 16  0  0
   -5.2500    9.0933    0.0000 C   0  0  0  0  0  0  0  0  0 17  0  0
   -2.2500    9.0933    0.0000 C   0  0  0  0  0  0  0  0  0 13  0  0
   -2.2500    6.4952    0.0000 H   0  0  0  0  0  0  0  0  0  0  0  0
   -4.5000   10.3923    0.0000 C   0  0  0  0  0  0  0  0  0 30  0  0
   -6.7500    9.0933    0.0000 H   0  0  0  0  0  0  0  0  0  0  0  0
   -3.0000   10.3923    0.0000 C   0  0  0  0  0  0  0  0  0 15  0  0
   -0.7500    9.0933    0.0000 H   0  0  0  0  0  0  0  0  0  0  0  0
   -5.2500   11.6913    0.0000 F   0  0  0  0  0  0  0  0  0  3  0  0
   -2.2500   11.6913    0.0000 H   0  0  0  0  0  0  0  0  0  0  0  0
  1  2  1  0
  2  3  1  0
  1  4  1  0
  1  5  1  0
  5  6  1  0
  5  7  1  0
  5  8  1  0
  6  9  1  0
  6 10  1  0
  6 11  1  0
  9 12  2  0
  9 13  2  0
  9 14  1  0
 14 15  1  0
 14 16  1  0
 14 17  1  0
 18  4  1  0
  4 19  1  0
  4 20  1  0
 21 18  1  0
 18 22  2  0
 23 21  1  0
 22 24  1  0
 22 25  1  0
 26 23  1  0
 24 23  2  0
 24 27  1  0
 28 26  2  0
 26 29  1  0
 30 28  1  0
 28 31  1  0
 29 32  2  0
 29 33  1  0
 34 30  2  0
 30 35  1  0
 32 36  1  0
 32 34  1  0
 37 34  1  0
 38 36  1  0
 36 39  2  0
 40 37  2  0
 41 38  1  0
 38 42  1  0
 39 40  1  0
 40 43  1  0
 44 41  2  0
 41 45  1  0
 46 44  1  0
 44 47  1  0
 45 48  2  0
 45 49  1  0
 50 46  1  0
 51 46  2  0
 48 51  1  0
 48 52  1  0
 51 53  1  0
 53 54  1  0
 54 55  1  0
 54 56  1  0
 54 57  1  0
 55 58  2  0
 59 55  1  0
 58 60  1  0
 58 61  1  0
 62 59  2  0
 59 63  1  0
 60 64  2  0
 60 65  1  0
 64 62  1  0
 62 66  1  0
 64 67  1  0
M  END
>  <SMILES>  (7) 
CS(=O)(=O)CCN(O)Cc1ccc(-c2ccc3ncnc(Nc4ccc(OCc5cccc(F)c5)c(Cl)c4)c3c2)o1

>  <Molecular Weight>  (7) 
597.1

>  <Substrate_ID>  (7) 
MOL0070

>  <Substrate>  (7) 


>  <Substrate_SMILES>  (7) 
CS(=O)(=O)CCNCc1ccc(-c2ccc3ncnc(Nc4ccc(OCc5cccc(F)c5)c(Cl)c4)c3c2)o1

>  <Reaction>  (7) 
amine hydroxylation

>  <Score>  (7) 
0.0522

>  <Reaction_Score>  (7) 
0.0043

>  <Bond_Score>  (7) 
0.6297

>  <Rank>  (7) 
4

>  <Subtype>  (7) 
2C8, 2C9, 3A4

>  <Subtype_Scores>  (7) 
[2C8] SOM_score: 0.1662, Reaction_score: 0.0043, Score: 0.0268
[2C9] SOM_score: 0.1654, Reaction_score: 0.0043, Score: 0.0268
[3A4] SOM_score: 0.6297, Reaction_score: 0.0043, Score: 0.0522


$$$$
