
     RDKit          2D

 31 33  0  0  0  0  0  0  0  0999 V2000
    3.0000   -5.1962    0.0000 N   0  0  0  0  0  0  0  0  0  5  0  0
    1.5000   -5.1962    0.0000 C   0  0  0  0  0  0  0  0  0 22  0  0
    3.7500   -3.8971    0.0000 C   0  0  0  0  0  0  0  0  0 23  0  0
    0.7500   -3.8971    0.0000 C   0  0  0  0  0  0  0  0  0 26  0  0
    1.7605   -6.6734    0.0000 H   0  0  0  0  0  0  0  0  0  0  0  0
    0.0905   -5.7092    0.0000 H   0  0  0  0  0  0  0  0  0  0  0  0
    3.0000   -2.5981    0.0000 C   0  0  0  0  0  0  0  0  0 27  0  0
    4.8991   -2.9329    0.0000 H   0  0  0  0  0  0  0  0  0  0  0  0
    4.8991   -4.8613    0.0000 H   0  0  0  0  0  0  0  0  0  0  0  0
    1.5000   -2.5981    0.0000 N   0  0  0  0  0  0  0  0  0  7  0  0
   -0.3991   -4.8613    0.0000 H   0  0  0  0  0  0  0  0  0  0  0  0
   -0.3991   -2.9329    0.0000 H   0  0  0  0  0  0  0  0  0  0  0  0
    2.7395   -1.1209    0.0000 H   0  0  0  0  0  0  0  0  0  0  0  0
    4.4095   -2.0850    0.0000 H   0  0  0  0  0  0  0  0  0  0  0  0
    0.7500   -1.2990    0.0000 C   0  0  0  0  0  0  0  0  0 32  0  0
   -0.7500   -1.2990    0.0000 C   0  0  0  0  0  0  0  0  0 36  0  0
    1.5000    0.0000    0.0000 C   0  0  0  0  0  0  0  0  0 13  0  0
   -1.5000   -2.5981    0.0000 C   0  0  0  0  0  0  0  0  0 17  0  0
   -1.5000    0.0000    0.0000 C   0  0  0  0  0  0  0  0  0 34  0  0
    0.7500    1.2990    0.0000 C   0  0  0  0  0  0  0  0  0  9  0  0
    3.0000    0.0000    0.0000 H   0  0  0  0  0  0  0  0  0  0  0  0
   -3.0000   -2.5981    0.0000 C   0  0  0  0  0  0  0  0  0 11  0  0
   -0.7500   -3.8971    0.0000 H   0  0  0  0  0  0  0  0  0  0  0  0
   -0.7500    1.2990    0.0000 N   0  0  0  0  0  0  0  0  0  3  0  0
   -3.0000    0.0000    0.0000 C   0  0  0  0  0  0  0  0  0 15  0  0
    1.5000    2.5981    0.0000 H   0  0  0  0  0  0  0  0  0  0  0  0
   -3.7500   -1.2990    0.0000 C   0  0  0  0  0  0  0  0  0 30  0  0
   -3.7500   -3.8971    0.0000 H   0  0  0  0  0  0  0  0  0  0  0  0
   -3.7500    1.2990    0.0000 H   0  0  0  0  0  0  0  0  0  0  0  0
   -5.2500   -1.2990    0.0000 Cl  0  0  0  0  0  0  0  0  0  1  0  0
    3.7500   -6.4952    0.0000 H   0  0  0  0  0  0  0  0  0  0  0  0
  2  1  1  0
  1  3  1  0
  4  2  1  0
  2  5  1  0
  2  6  1  0
  3  7  1  0
  3  8  1  0
  3  9  1  0
 10  4  1  0
  4 11  1  0
  4 12  1  0
  7 10  1  0
  7 13  1  0
  7 14  1  0
 15 10  1  0
 16 15  1  0
 15 17  2  0
 18 16  2  0
 19 16  1  0
 17 20  1  0
 17 21  1  0
 22 18  1  0
 18 23  1  0
 24 19  1  0
 19 25  2  0
 20 24  2  0
 20 26  1  0
 27 22  2  0
 22 28  1  0
 25 27  1  0
 25 29  1  0
 30 27  1  0
  1 31  1  0
M  END
>  <SMILES>  (1) 
Clc1ccc2c(N3CCNCC3)ccnc2c1

>  <Molecular Weight>  (1) 
247.7

>  <Substrate_ID>  (1) 
MOL0032

>  <Substrate>  (1) 


>  <Substrate_SMILES>  (1) 
Clc1ccc2c(N3CCN(CCCN4CCN(c5ccnc6cc(Cl)ccc56)CC4)CC3)ccnc2c1

>  <Reaction>  (1) 
N-dealkylation_(tertiaryN-CH2-alkyl)

>  <Score>  (1) 
0.5002

>  <Reaction_Score>  (1) 
0.45

>  <Bond_Score>  (1) 
0.556

>  <Rank>  (1) 
1

>  <Subtype>  (1) 
2C8, 2D6, 3A4

>  <Subtype_Scores>  (1) 
[2C8] SOM_score: 0.1728, Reaction_score: 0.4500, Score: 0.2789
[2D6] SOM_score: 0.1408, Reaction_score: 0.4500, Score: 0.2517
[3A4] SOM_score: 0.5560, Reaction_score: 0.4500, Score: 0.5002


$$$$

     RDKit          2D

 41 43  0  0  0  0  0  0  0  0999 V2000
    6.0000  -10.3923    0.0000 O   0  0  0  0  0  0  0  0  0 38  0  0
    5.2500   -9.0933    0.0000 C   0  0  0  0  0  0  0  0  0 20  0  0
    4.5000   -7.7942    0.0000 C   0  0  0  0  0  0  0  0  0 19  0  0
    3.9510   -9.8433    0.0000 H   0  0  0  0  0  0  0  0  0  0  0  0
    6.5490   -8.3433    0.0000 H   0  0  0  0  0  0  0  0  0  0  0  0
    3.7500   -6.4952    0.0000 C   0  0  0  0  0  0  0  0  0 21  0  0
    3.2010   -8.5442    0.0000 H   0  0  0  0  0  0  0  0  0  0  0  0
    5.7990   -7.0442    0.0000 H   0  0  0  0  0  0  0  0  0  0  0  0
    3.0000   -5.1962    0.0000 N   0  0  0  0  0  0  0  0  0  6  0  0
    5.1308   -5.9091    0.0000 H   0  0  0  0  0  0  0  0  0  0  0  0
    2.5521   -7.3979    0.0000 H   0  0  0  0  0  0  0  0  0  0  0  0
    1.5000   -5.1962    0.0000 C   0  0  0  0  0  0  0  0  0 24  0  0
    3.7500   -3.8971    0.0000 C   0  0  0  0  0  0  0  0  0 25  0  0
    0.7500   -3.8971    0.0000 C   0  0  0  0  0  0  0  0  0 28  0  0
    1.5785   -6.6941    0.0000 H   0  0  0  0  0  0  0  0  0  0  0  0
    0.0905   -5.7092    0.0000 H   0  0  0  0  0  0  0  0  0  0  0  0
    3.0000   -2.5981    0.0000 C   0  0  0  0  0  0  0  0  0 29  0  0
    4.8991   -2.9329    0.0000 H   0  0  0  0  0  0  0  0  0  0  0  0
    5.0080   -4.7140    0.0000 H   0  0  0  0  0  0  0  0  0  0  0  0
    1.5000   -2.5981    0.0000 N   0  0  0  0  0  0  0  0  0  8  0  0
   -0.3991   -4.8613    0.0000 H   0  0  0  0  0  0  0  0  0  0  0  0
   -0.3991   -2.9329    0.0000 H   0  0  0  0  0  0  0  0  0  0  0  0
    2.7395   -1.1209    0.0000 H   0  0  0  0  0  0  0  0  0  0  0  0
    4.4095   -2.0850    0.0000 H   0  0  0  0  0  0  0  0  0  0  0  0
    0.7500   -1.2990    0.0000 C   0  0  0  0  0  0  0  0  0 33  0  0
    1.5000    0.0000    0.0000 C   0  0  0  0  0  0  0  0  0 14  0  0
   -0.7500   -1.2990    0.0000 C   0  0  0  0  0  0  0  0  0 37  0  0
    0.7500    1.2990    0.0000 C   0  0  0  0  0  0  0  0  0 10  0  0
    3.0000    0.0000    0.0000 H   0  0  0  0  0  0  0  0  0  0  0  0
   -1.5000   -2.5981    0.0000 C   0  0  0  0  0  0  0  0  0 18  0  0
   -1.5000    0.0000    0.0000 C   0  0  0  0  0  0  0  0  0 35  0  0
   -0.7500    1.2990    0.0000 N   0  0  0  0  0  0  0  0  0  4  0  0
    1.5000    2.5981    0.0000 H   0  0  0  0  0  0  0  0  0  0  0  0
   -3.0000   -2.5981    0.0000 C   0  0  0  0  0  0  0  0  0 12  0  0
   -0.7500   -3.8971    0.0000 H   0  0  0  0  0  0  0  0  0  0  0  0
   -3.0000    0.0000    0.0000 C   0  0  0  0  0  0  0  0  0 16  0  0
   -3.7500   -1.2990    0.0000 C   0  0  0  0  0  0  0  0  0 31  0  0
   -3.7500   -3.8971    0.0000 H   0  0  0  0  0  0  0  0  0  0  0  0
   -3.7500    1.2990    0.0000 H   0  0  0  0  0  0  0  0  0  0  0  0
   -5.2500   -1.2990    0.0000 Cl  0  0  0  0  0  0  0  0  0  2  0  0
    7.5000  -10.3923    0.0000 H   0  0  0  0  0  0  0  0  0  0  0  0
  1  2  1  0
  2  3  1  0
  2  4  1  0
  2  5  1  0
  3  6  1  0
  3  7  1  0
  3  8  1  0
  6  9  1  0
  6 10  1  0
  6 11  1  0
  9 12  1  0
 13  9  1  0
 12 14  1  0
 12 15  1  0
 12 16  1  0
 17 13  1  0
 13 18  1  0
 13 19  1  0
 14 20  1  0
 14 21  1  0
 14 22  1  0
 20 17  1  0
 17 23  1  0
 17 24  1  0
 20 25  1  0
 25 26  2  0
 27 25  1  0
 26 28  1  0
 26 29  1  0
 30 27  2  0
 27 31  1  0
 28 32  2  0
 28 33  1  0
 34 30  1  0
 30 35  1  0
 32 31  1  0
 31 36  2  0
 37 34  2  0
 34 38  1  0
 36 37  1  0
 36 39  1  0
 37 40  1  0
  1 41  1  0
M  END
>  <SMILES>  (2) 
OCCCN1CCN(c2ccnc3cc(Cl)ccc23)CC1

>  <Molecular Weight>  (2) 
305.8

>  <Substrate_ID>  (2) 
MOL0032

>  <Substrate>  (2) 


>  <Substrate_SMILES>  (2) 
Clc1ccc2c(N3CCN(CCCN4CCN(c5ccnc6cc(Cl)ccc56)CC4)CC3)ccnc2c1

>  <Reaction>  (2) 
N-dealkylation_(tertiaryN-CH2-alkyl)

>  <Score>  (2) 
0.5002

>  <Reaction_Score>  (2) 
0.45

>  <Bond_Score>  (2) 
0.556

>  <Rank>  (2) 
1

>  <Subtype>  (2) 
2C8, 2D6, 3A4

>  <Subtype_Scores>  (2) 
[2C8] SOM_score: 0.1728, Reaction_score: 0.4500, Score: 0.2789
[2D6] SOM_score: 0.1408, Reaction_score: 0.4500, Score: 0.2517
[3A4] SOM_score: 0.5560, Reaction_score: 0.4500, Score: 0.5002


$$$$

     RDKit          2D

 39 41  0  0  0  0  0  0  0  0999 V2000
    5.2500   -9.0933    0.0000 C   0  0  0  0  0  0  0  0  0 20  0  0
    6.7500   -9.0933    0.0000 O   0  0  0  0  0  0  0  0  0 38  0  0
    4.5000   -7.7942    0.0000 C   0  0  0  0  0  0  0  0  0 19  0  0
    4.5000  -10.3923    0.0000 H   0  0  0  0  0  0  0  0  0  0  0  0
    3.7500   -6.4952    0.0000 C   0  0  0  0  0  0  0  0  0 21  0  0
    5.7990   -7.0442    0.0000 H   0  0  0  0  0  0  0  0  0  0  0  0
    3.2010   -8.5442    0.0000 H   0  0  0  0  0  0  0  0  0  0  0  0
    3.0000   -5.1962    0.0000 N   0  0  0  0  0  0  0  0  0  6  0  0
    2.5521   -7.3979    0.0000 H   0  0  0  0  0  0  0  0  0  0  0  0
    5.1308   -5.9091    0.0000 H   0  0  0  0  0  0  0  0  0  0  0  0
    1.5000   -5.1962    0.0000 C   0  0  0  0  0  0  0  0  0 24  0  0
    3.7500   -3.8971    0.0000 C   0  0  0  0  0  0  0  0  0 25  0  0
    0.7500   -3.8971    0.0000 C   0  0  0  0  0  0  0  0  0 28  0  0
    1.5785   -6.6941    0.0000 H   0  0  0  0  0  0  0  0  0  0  0  0
    0.0905   -5.7092    0.0000 H   0  0  0  0  0  0  0  0  0  0  0  0
    3.0000   -2.5981    0.0000 C   0  0  0  0  0  0  0  0  0 29  0  0
    4.8991   -2.9329    0.0000 H   0  0  0  0  0  0  0  0  0  0  0  0
    5.0080   -4.7140    0.0000 H   0  0  0  0  0  0  0  0  0  0  0  0
    1.5000   -2.5981    0.0000 N   0  0  0  0  0  0  0  0  0  8  0  0
   -0.3991   -4.8613    0.0000 H   0  0  0  0  0  0  0  0  0  0  0  0
   -0.3991   -2.9329    0.0000 H   0  0  0  0  0  0  0  0  0  0  0  0
    2.7395   -1.1209    0.0000 H   0  0  0  0  0  0  0  0  0  0  0  0
    4.4095   -2.0850    0.0000 H   0  0  0  0  0  0  0  0  0  0  0  0
    0.7500   -1.2990    0.0000 C   0  0  0  0  0  0  0  0  0 33  0  0
    1.5000    0.0000    0.0000 C   0  0  0  0  0  0  0  0  0 14  0  0
   -0.7500   -1.2990    0.0000 C   0  0  0  0  0  0  0  0  0 37  0  0
    0.7500    1.2990    0.0000 C   0  0  0  0  0  0  0  0  0 10  0  0
    3.0000    0.0000    0.0000 H   0  0  0  0  0  0  0  0  0  0  0  0
   -1.5000   -2.5981    0.0000 C   0  0  0  0  0  0  0  0  0 18  0  0
   -1.5000    0.0000    0.0000 C   0  0  0  0  0  0  0  0  0 35  0  0
   -0.7500    1.2990    0.0000 N   0  0  0  0  0  0  0  0  0  4  0  0
    1.5000    2.5981    0.0000 H   0  0  0  0  0  0  0  0  0  0  0  0
   -3.0000   -2.5981    0.0000 C   0  0  0  0  0  0  0  0  0 12  0  0
   -0.7500   -3.8971    0.0000 H   0  0  0  0  0  0  0  0  0  0  0  0
   -3.0000    0.0000    0.0000 C   0  0  0  0  0  0  0  0  0 16  0  0
   -3.7500   -1.2990    0.0000 C   0  0  0  0  0  0  0  0  0 31  0  0
   -3.7500   -3.8971    0.0000 H   0  0  0  0  0  0  0  0  0  0  0  0
   -3.7500    1.2990    0.0000 H   0  0  0  0  0  0  0  0  0  0  0  0
   -5.2500   -1.2990    0.0000 Cl  0  0  0  0  0  0  0  0  0  2  0  0
  1  2  2  0
  1  3  1  0
  1  4  1  0
  3  5  1  0
  3  6  1  0
  3  7  1  0
  5  8  1  0
  5  9  1  0
  5 10  1  0
  8 11  1  0
 12  8  1  0
 11 13  1  0
 11 14  1  0
 11 15  1  0
 16 12  1  0
 12 17  1  0
 12 18  1  0
 13 19  1  0
 13 20  1  0
 13 21  1  0
 19 16  1  0
 16 22  1  0
 16 23  1  0
 19 24  1  0
 24 25  2  0
 26 24  1  0
 25 27  1  0
 25 28  1  0
 29 26  2  0
 26 30  1  0
 27 31  2  0
 27 32  1  0
 33 29  1  0
 29 34  1  0
 31 30  1  0
 30 35  2  0
 36 33  2  0
 33 37  1  0
 35 36  1  0
 35 38  1  0
 36 39  1  0
M  END
>  <SMILES>  (3) 
O=CCCN1CCN(c2ccnc3cc(Cl)ccc23)CC1

>  <Molecular Weight>  (3) 
303.8

>  <Substrate_ID>  (3) 
MOL0032

>  <Substrate>  (3) 


>  <Substrate_SMILES>  (3) 
Clc1ccc2c(N3CCN(CCCN4CCN(c5ccnc6cc(Cl)ccc56)CC4)CC3)ccnc2c1

>  <Reaction>  (3) 
N-dealkylation_(hetero_ring)

>  <Score>  (3) 
0.5002

>  <Reaction_Score>  (3) 
0.45

>  <Bond_Score>  (3) 
0.556

>  <Rank>  (3) 
1

>  <Subtype>  (3) 
2C8, 2D6, 3A4

>  <Subtype_Scores>  (3) 
[2C8] SOM_score: 0.1728, Reaction_score: 0.4500, Score: 0.2789
[2D6] SOM_score: 0.1408, Reaction_score: 0.4500, Score: 0.2517
[3A4] SOM_score: 0.5560, Reaction_score: 0.4500, Score: 0.5002


$$$$

     RDKit          2D

 70 75  0  0  0  0  0  0  0  0999 V2000
    1.5000   -0.0000    0.0000 N   0  0  0  0  0  0  0  0  0  4  0  0
    0.7500   -1.2990    0.0000 C   0  0  0  0  0  0  0  0  0 35  0  0
   -0.7500   -1.2990    0.0000 C   0  0  0  0  0  0  0  0  0 37  0  0
   -1.5000   -2.5981    0.0000 C   0  0  0  0  0  0  0  0  0 18  0  0
   -0.7500   -3.8971    0.0000 C   0  0  0  0  0  0  0  0  0 12  0  0
   -1.5000   -5.1962    0.0000 O   0  0  0  0  0  0  0  0  0 38  0  0
    0.7500   -3.8971    0.0000 C   0  0  0  0  0  0  0  0  0 31  0  0
    1.5000   -2.5981    0.0000 C   0  0  0  0  0  0  0  0  0 16  0  0
    0.7500    1.2990    0.0000 C   0  0  0  0  0  0  0  0  0 10  0  0
   -0.7500    1.2990    0.0000 C   0  0  0  0  0  0  0  0  0 14  0  0
    1.5000    2.5981    0.0000 H   0  0  0  0  0  0  0  0  0  0  0  0
   -1.5000   -0.0000    0.0000 C   0  0  0  0  0  0  0  0  0 33  0  0
   -1.5000    2.5981    0.0000 H   0  0  0  0  0  0  0  0  0  0  0  0
   -3.0000   -0.0000    0.0000 N   0  0  0  0  0  0  0  0  0  8  0  0
   -3.7500    1.2990    0.0000 C   0  0  0  0  0  0  0  0  0 28  0  0
   -3.7500   -1.2990    0.0000 C   0  0  0  0  0  0  0  0  0 29  0  0
   -5.2500    1.2990    0.0000 C   0  0  0  0  0  0  0  0  0 24  0  0
   -4.0105    2.7762    0.0000 H   0  0  0  0  0  0  0  0  0  0  0  0
   -2.3405    1.8121    0.0000 H   0  0  0  0  0  0  0  0  0  0  0  0
   -5.2500   -1.2990    0.0000 C   0  0  0  0  0  0  0  0  0 25  0  0
   -2.3405   -1.8121    0.0000 H   0  0  0  0  0  0  0  0  0  0  0  0
   -4.0105   -2.7762    0.0000 H   0  0  0  0  0  0  0  0  0  0  0  0
   -6.0000    0.0000    0.0000 N   0  0  0  0  0  0  0  0  0  6  0  0
   -6.5865    1.9801    0.0000 H   0  0  0  0  0  0  0  0  0  0  0  0
   -4.9895    2.7762    0.0000 H   0  0  0  0  0  0  0  0  0  0  0  0
   -4.9895   -2.7762    0.0000 H   0  0  0  0  0  0  0  0  0  0  0  0
   -6.5865   -1.9801    0.0000 H   0  0  0  0  0  0  0  0  0  0  0  0
   -7.5000    0.0000    0.0000 C   0  0  0  0  0  0  0  0  0 21  0  0
   -9.0000   -0.0000    0.0000 C   0  0  0  0  0  0  0  0  0 19  0  0
   -7.6828   -1.4888    0.0000 H   0  0  0  0  0  0  0  0  0  0  0  0
   -7.6828    1.4888    0.0000 H   0  0  0  0  0  0  0  0  0  0  0  0
  -10.5000   -0.0000    0.0000 C   0  0  0  0  0  0  0  0  0 20  0  0
   -9.0000   -1.5000    0.0000 H   0  0  0  0  0  0  0  0  0  0  0  0
   -9.0000    1.5000    0.0000 H   0  0  0  0  0  0  0  0  0  0  0  0
  -12.0000   -0.0000    0.0000 N   0  0  0  0  0  0  0  0  0  5  0  0
  -10.3172    1.4888    0.0000 H   0  0  0  0  0  0  0  0  0  0  0  0
  -10.3172   -1.4888    0.0000 H   0  0  0  0  0  0  0  0  0  0  0  0
  -12.7500    1.2990    0.0000 C   0  0  0  0  0  0  0  0  0 22  0  0
  -12.7500   -1.2990    0.0000 C   0  0  0  0  0  0  0  0  0 23  0  0
  -14.2500    1.2990    0.0000 C   0  0  0  0  0  0  0  0  0 26  0  0
  -13.0105    2.7762    0.0000 H   0  0  0  0  0  0  0  0  0  0  0  0
  -11.4135    1.9801    0.0000 H   0  0  0  0  0  0  0  0  0  0  0  0
  -14.2500   -1.2990    0.0000 C   0  0  0  0  0  0  0  0  0 27  0  0
  -11.4135   -1.9801    0.0000 H   0  0  0  0  0  0  0  0  0  0  0  0
  -13.0105   -2.7762    0.0000 H   0  0  0  0  0  0  0  0  0  0  0  0
  -15.0000   -0.0000    0.0000 N   0  0  0  0  0  0  0  0  0  7  0  0
  -15.6595    1.8121    0.0000 H   0  0  0  0  0  0  0  0  0  0  0  0
  -13.9895    2.7762    0.0000 H   0  0  0  0  0  0  0  0  0  0  0  0
  -13.9895   -2.7762    0.0000 H   0  0  0  0  0  0  0  0  0  0  0  0
  -15.6595   -1.8121    0.0000 H   0  0  0  0  0  0  0  0  0  0  0  0
  -16.5000   -0.0000    0.0000 C   0  0  0  0  0  0  0  0  0 32  0  0
  -17.2500    1.2990    0.0000 C   0  0  0  0  0  0  0  0  0 36  0  0
  -17.2500   -1.2990    0.0000 C   0  0  0  0  0  0  0  0  0 13  0  0
  -16.5000    2.5981    0.0000 C   0  0  0  0  0  0  0  0  0 17  0  0
  -18.7500    1.2990    0.0000 C   0  0  0  0  0  0  0  0  0 34  0  0
  -18.7500   -1.2990    0.0000 C   0  0  0  0  0  0  0  0  0  9  0  0
  -16.5000   -2.5981    0.0000 H   0  0  0  0  0  0  0  0  0  0  0  0
  -17.2500    3.8971    0.0000 C   0  0  0  0  0  0  0  0  0 11  0  0
  -15.0000    2.5981    0.0000 H   0  0  0  0  0  0  0  0  0  0  0  0
  -19.5000   -0.0000    0.0000 N   0  0  0  0  0  0  0  0  0  3  0  0
  -19.5000    2.5981    0.0000 C   0  0  0  0  0  0  0  0  0 15  0  0
  -19.5000   -2.5981    0.0000 H   0  0  0  0  0  0  0  0  0  0  0  0
  -18.7500    3.8971    0.0000 C   0  0  0  0  0  0  0  0  0 30  0  0
  -16.5000    5.1962    0.0000 H   0  0  0  0  0  0  0  0  0  0  0  0
  -21.0000    2.5981    0.0000 H   0  0  0  0  0  0  0  0  0  0  0  0
  -19.5000    5.1962    0.0000 Cl  0  0  0  0  0  0  0  0  0  1  0  0
   -3.0000   -2.5981    0.0000 H   0  0  0  0  0  0  0  0  0  0  0  0
    1.5000   -5.1962    0.0000 Cl  0  0  0  0  0  0  0  0  0  2  0  0
    3.0000   -2.5981    0.0000 H   0  0  0  0  0  0  0  0  0  0  0  0
   -0.7500   -6.4952    0.0000 H   0  0  0  0  0  0  0  0  0  0  0  0
  1  2  2  0
  2  3  1  0
  3  4  1  0
  4  5  2  0
  5  6  1  0
  5  7  1  0
  7  8  2  0
  8  2  1  0
  9  1  1  0
 10  9  2  0
  9 11  1  0
 12 10  1  0
 10 13  1  0
 14 12  1  0
  3 12  2  0
 15 14  1  0
 14 16  1  0
 17 15  1  0
 15 18  1  0
 15 19  1  0
 16 20  1  0
 16 21  1  0
 16 22  1  0
 23 17  1  0
 17 24  1  0
 17 25  1  0
 20 23  1  0
 20 26  1  0
 20 27  1  0
 28 23  1  0
 29 28  1  0
 28 30  1  0
 28 31  1  0
 32 29  1  0
 29 33  1  0
 29 34  1  0
 35 32  1  0
 32 36  1  0
 32 37  1  0
 38 35  1  0
 35 39  1  0
 40 38  1  0
 38 41  1  0
 38 42  1  0
 39 43  1  0
 39 44  1  0
 39 45  1  0
 46 40  1  0
 40 47  1  0
 40 48  1  0
 43 46  1  0
 43 49  1  0
 43 50  1  0
 51 46  1  0
 52 51  1  0
 51 53  2  0
 54 52  2  0
 55 52  1  0
 53 56  1  0
 53 57  1  0
 58 54  1  0
 54 59  1  0
 60 55  1  0
 55 61  2  0
 56 60  2  0
 56 62  1  0
 63 58  2  0
 58 64  1  0
 61 63  1  0
 61 65  1  0
 66 63  1  0
  4 67  1  0
  7 68  1  0
  8 69  1  0
  6 70  1  0
M  END
>  <SMILES>  (4) 
Oc1cc2c(N3CCN(CCCN4CCN(c5ccnc6cc(Cl)ccc56)CC4)CC3)ccnc2cc1Cl

>  <Molecular Weight>  (4) 
551.5

>  <Substrate_ID>  (4) 
MOL0032

>  <Substrate>  (4) 


>  <Substrate_SMILES>  (4) 
Clc1ccc2c(N3CCN(CCCN4CCN(c5ccnc6cc(Cl)ccc56)CC4)CC3)ccnc2c1

>  <Reaction>  (4) 
aromatic_hydroxylation_(para_to_nitrogen),aromatic hydroxylation

>  <Score>  (4) 
0.1188

>  <Reaction_Score>  (4) 
0.1157

>  <Bond_Score>  (4) 
0.122

>  <Rank>  (4) 
2

>  <Subtype>  (4) 
3A4

>  <Subtype_Scores>  (4) 
[3A4] SOM_score: 0.1220, Reaction_score: 0.1157, Score: 0.1188


$$$$

     RDKit          2D

 70 75  0  0  0  0  0  0  0  0999 V2000
    3.7500   -3.8971    0.0000 C   0  0  0  0  0  0  0  0  0 22  0  0
    3.0000   -5.1962    0.0000 N   0  0  0  0  0  4  0  0  0  5  0  0
    4.4095   -5.7092    0.0000 C   0  0  0  0  0  0  0  0  0 20  0  0
    1.5000   -5.1962    0.0000 C   0  0  0  0  0  0  0  0  0 23  0  0
    2.7395   -6.6734    0.0000 O   0  0  0  0  0  1  0  0  0 38  0  0
    3.0000   -2.5981    0.0000 C   0  0  0  0  0  0  0  0  0 26  0  0
    4.8991   -2.9329    0.0000 H   0  0  0  0  0  0  0  0  0  0  0  0
    4.4186   -4.3313    0.0000 H   0  0  0  0  0  0  0  0  0  0  0  0
    1.5000   -2.5981    0.0000 N   0  0  0  0  0  0  0  0  0  7  0  0
    2.7395   -1.1209    0.0000 H   0  0  0  0  0  0  0  0  0  0  0  0
    4.4095   -2.0850    0.0000 H   0  0  0  0  0  0  0  0  0  0  0  0
    0.7500   -1.2990    0.0000 C   0  0  0  0  0  0  0  0  0 32  0  0
    0.7500   -3.8971    0.0000 C   0  0  0  0  0  0  0  0  0 27  0  0
   -0.7500   -1.2990    0.0000 C   0  0  0  0  0  0  0  0  0 36  0  0
    1.5000   -0.0000    0.0000 C   0  0  0  0  0  0  0  0  0 13  0  0
   -0.3991   -4.8613    0.0000 H   0  0  0  0  0  0  0  0  0  0  0  0
   -0.3991   -2.9329    0.0000 H   0  0  0  0  0  0  0  0  0  0  0  0
   -1.5000   -2.5981    0.0000 C   0  0  0  0  0  0  0  0  0 17  0  0
   -1.5000   -0.0000    0.0000 C   0  0  0  0  0  0  0  0  0 34  0  0
    0.7500    1.2990    0.0000 C   0  0  0  0  0  0  0  0  0  9  0  0
    3.0000   -0.0000    0.0000 H   0  0  0  0  0  0  0  0  0  0  0  0
   -3.0000   -2.5981    0.0000 C   0  0  0  0  0  0  0  0  0 11  0  0
   -0.7500   -3.8971    0.0000 H   0  0  0  0  0  0  0  0  0  0  0  0
   -0.7500    1.2990    0.0000 N   0  0  0  0  0  0  0  0  0  3  0  0
   -3.0000   -0.0000    0.0000 C   0  0  0  0  0  0  0  0  0 15  0  0
    1.5000    2.5981    0.0000 H   0  0  0  0  0  0  0  0  0  0  0  0
   -3.7500   -1.2990    0.0000 C   0  0  0  0  0  0  0  0  0 30  0  0
   -3.7500   -3.8971    0.0000 H   0  0  0  0  0  0  0  0  0  0  0  0
   -3.7500    1.2990    0.0000 H   0  0  0  0  0  0  0  0  0  0  0  0
   -5.2500   -1.2990    0.0000 Cl  0  0  0  0  0  0  0  0  0  1  0  0
    5.8191   -6.2222    0.0000 C   0  0  0  0  0  0  0  0  0 19  0  0
    4.7715   -4.9989    0.0000 H   0  0  0  0  0  0  0  0  0  0  0  0
    3.8965   -7.1187    0.0000 H   0  0  0  0  0  0  0  0  0  0  0  0
    7.2286   -6.7352    0.0000 C   0  0  0  0  0  0  0  0  0 21  0  0
    5.3060   -7.6318    0.0000 H   0  0  0  0  0  0  0  0  0  0  0  0
    6.3321   -4.8127    0.0000 H   0  0  0  0  0  0  0  0  0  0  0  0
    8.6382   -7.2483    0.0000 N   0  0  0  0  0  0  0  0  0  6  0  0
    7.5660   -5.2737    0.0000 H   0  0  0  0  0  0  0  0  0  0  0  0
    6.5476   -8.0717    0.0000 H   0  0  0  0  0  0  0  0  0  0  0  0
    8.8986   -8.7255    0.0000 C   0  0  0  0  0  0  0  0  0 24  0  0
    9.7872   -6.2841    0.0000 C   0  0  0  0  0  0  0  0  0 25  0  0
   10.3082   -9.2385    0.0000 C   0  0  0  0  0  0  0  0  0 28  0  0
    8.6382  -10.2027    0.0000 H   0  0  0  0  0  0  0  0  0  0  0  0
    7.4098   -8.9083    0.0000 H   0  0  0  0  0  0  0  0  0  0  0  0
   11.1968   -6.7971    0.0000 C   0  0  0  0  0  0  0  0  0 29  0  0
    8.7643   -5.1870    0.0000 H   0  0  0  0  0  0  0  0  0  0  0  0
   10.5372   -4.9851    0.0000 H   0  0  0  0  0  0  0  0  0  0  0  0
   11.4572   -8.2743    0.0000 N   0  0  0  0  0  0  0  0  0  8  0  0
   11.4572  -10.2027    0.0000 H   0  0  0  0  0  0  0  0  0  0  0  0
    9.5582  -10.5376    0.0000 H   0  0  0  0  0  0  0  0  0  0  0  0
   11.4572   -5.3199    0.0000 H   0  0  0  0  0  0  0  0  0  0  0  0
   12.6968   -6.7971    0.0000 H   0  0  0  0  0  0  0  0  0  0  0  0
   12.8668   -8.7874    0.0000 C   0  0  0  0  0  0  0  0  0 33  0  0
   14.0158   -7.8232    0.0000 C   0  0  0  0  0  0  0  0  0 14  0  0
   13.1272  -10.2646    0.0000 C   0  0  0  0  0  0  0  0  0 37  0  0
   15.4254   -8.3362    0.0000 C   0  0  0  0  0  0  0  0  0 10  0  0
   13.7554   -6.3460    0.0000 H   0  0  0  0  0  0  0  0  0  0  0  0
   11.9782  -11.2288    0.0000 C   0  0  0  0  0  0  0  0  0 18  0  0
   14.5368  -10.7776    0.0000 C   0  0  0  0  0  0  0  0  0 35  0  0
   15.6859   -9.8134    0.0000 N   0  0  0  0  0  0  0  0  0  4  0  0
   16.5744   -7.3720    0.0000 H   0  0  0  0  0  0  0  0  0  0  0  0
   12.2387  -12.7060    0.0000 C   0  0  0  0  0  0  0  0  0 12  0  0
   10.5686  -10.7157    0.0000 H   0  0  0  0  0  0  0  0  0  0  0  0
   14.7973  -12.2548    0.0000 C   0  0  0  0  0  0  0  0  0 16  0  0
   13.6482  -13.2190    0.0000 C   0  0  0  0  0  0  0  0  0 31  0  0
   11.0896  -13.6702    0.0000 H   0  0  0  0  0  0  0  0  0  0  0  0
   16.2068  -12.7678    0.0000 H   0  0  0  0  0  0  0  0  0  0  0  0
   13.9087  -14.6962    0.0000 Cl  0  0  0  0  0  0  0  0  0  2  0  0
    1.7605   -6.6734    0.0000 H   0  0  0  0  0  0  0  0  0  0  0  0
    0.0905   -5.7092    0.0000 H   0  0  0  0  0  0  0  0  0  0  0  0
  1  2  1  0
  2  3  1  0
  2  4  1  0
  2  5  1  0
  6  1  1  0
  1  7  1  0
  1  8  1  0
  9  6  1  0
  6 10  1  0
  6 11  1  0
 12  9  1  0
 13  9  1  0
 14 12  1  0
 12 15  2  0
  4 13  1  0
 13 16  1  0
 13 17  1  0
 18 14  2  0
 19 14  1  0
 15 20  1  0
 15 21  1  0
 22 18  1  0
 18 23  1  0
 24 19  1  0
 19 25  2  0
 20 24  2  0
 20 26  1  0
 27 22  2  0
 22 28  1  0
 25 27  1  0
 25 29  1  0
 30 27  1  0
  3 31  1  0
  3 32  1  0
  3 33  1  0
 31 34  1  0
 31 35  1  0
 31 36  1  0
 34 37  1  0
 34 38  1  0
 34 39  1  0
 37 40  1  0
 41 37  1  0
 40 42  1  0
 40 43  1  0
 40 44  1  0
 45 41  1  0
 41 46  1  0
 41 47  1  0
 42 48  1  0
 42 49  1  0
 42 50  1  0
 48 45  1  0
 45 51  1  0
 45 52  1  0
 48 53  1  0
 53 54  2  0
 55 53  1  0
 54 56  1  0
 54 57  1  0
 58 55  2  0
 55 59  1  0
 56 60  2  0
 56 61  1  0
 62 58  1  0
 58 63  1  0
 60 59  1  0
 59 64  2  0
 65 62  2  0
 62 66  1  0
 64 65  1  0
 64 67  1  0
 65 68  1  0
  4 69  1  0
  4 70  1  0
M  CHG  2   2   1   5  -1
M  END
>  <SMILES>  (5) 
[O-][N+]1(CCCN2CCN(c3ccnc4cc(Cl)ccc34)CC2)CCN(c2ccnc3cc(Cl)ccc23)CC1

>  <Molecular Weight>  (5) 
551.5

>  <Substrate_ID>  (5) 
MOL0032

>  <Substrate>  (5) 


>  <Substrate_SMILES>  (5) 
Clc1ccc2c(N3CCN(CCCN4CCN(c5ccnc6cc(Cl)ccc56)CC4)CC3)ccnc2c1

>  <Reaction>  (5) 
N-oxidation_(tertiary_N),N-oxidation

>  <Score>  (5) 
0.0993

>  <Reaction_Score>  (5) 
0.0155

>  <Bond_Score>  (5) 
0.6336

>  <Rank>  (5) 
3

>  <Subtype>  (5) 
2C8, 2D6, 3A4

>  <Subtype_Scores>  (5) 
[2C8] SOM_score: 0.1759, Reaction_score: 0.0155, Score: 0.0523
[2D6] SOM_score: 0.2430, Reaction_score: 0.0155, Score: 0.0615
[3A4] SOM_score: 0.6336, Reaction_score: 0.0155, Score: 0.0993


$$$$
