
     RDKit          2D

 25 24  0  0  0  0  0  0  0  0999 V2000
    2.5981    4.5000    0.0000 S   0  0  0  0  0  4  0  0  0  2  0  0
    3.8971    5.2500    0.0000 O   0  0  0  0  0  0  0  0  0 13  0  0
    2.5981    3.0000    0.0000 P   0  0  0  0  0  5  0  0  0  3  0  0
    2.5981    1.5000    0.0000 S   0  0  0  0  0  0  0  0  0  1  0  0
    4.0981    3.0000    0.0000 O   0  0  0  0  0  0  0  0  0  5  0  0
    1.0981    3.0000    0.0000 O   0  0  0  0  0  0  0  0  0  6  0  0
    1.2990    0.7500    0.0000 C   0  0  0  0  0  0  0  0  0  9  0  0
    4.8481    1.7010    0.0000 C   0  0  0  0  0  0  0  0  0 10  0  0
    0.3481    4.2990    0.0000 C   0  0  0  0  0  0  0  0  0 11  0  0
    0.0000    0.0000    0.0000 C   0  0  0  0  0  0  0  0  0  8  0  0
    2.0490   -0.5490    0.0000 H   0  0  0  0  0  0  0  0  0  0  0  0
    0.5490    2.0490    0.0000 H   0  0  0  0  0  0  0  0  0  0  0  0
    5.5981    0.4019    0.0000 H   0  0  0  0  0  0  0  0  0  0  0  0
    3.5490    0.9510    0.0000 H   0  0  0  0  0  0  0  0  0  0  0  0
    6.1471    2.4510    0.0000 H   0  0  0  0  0  0  0  0  0  0  0  0
   -0.4019    5.5981    0.0000 H   0  0  0  0  0  0  0  0  0  0  0  0
   -0.9510    3.5490    0.0000 H   0  0  0  0  0  0  0  0  0  0  0  0
    1.6471    5.0490    0.0000 H   0  0  0  0  0  0  0  0  0  0  0  0
   -0.0000   -1.5000    0.0000 O   0  0  0  0  0  0  0  0  0  4  0  0
   -1.2990    0.7500    0.0000 N   0  0  0  0  0  0  0  0  0  7  0  0
   -2.5981    0.0000    0.0000 C   0  0  0  0  0  0  0  0  0 12  0  0
   -1.2990    2.2500    0.0000 H   0  0  0  0  0  0  0  0  0  0  0  0
   -3.8971   -0.7500    0.0000 H   0  0  0  0  0  0  0  0  0  0  0  0
   -3.3481    1.2990    0.0000 H   0  0  0  0  0  0  0  0  0  0  0  0
   -1.8481   -1.2990    0.0000 H   0  0  0  0  0  0  0  0  0  0  0  0
  1  2  2  0
  3  1  2  0
  4  3  1  0
  3  5  1  0
  3  6  1  0
  4  7  1  0
  5  8  1  0
  6  9  1  0
  7 10  1  0
  7 11  1  0
  7 12  1  0
  8 13  1  0
  8 14  1  0
  8 15  1  0
  9 16  1  0
  9 17  1  0
  9 18  1  0
 10 19  2  0
 10 20  1  0
 20 21  1  0
 20 22  1  0
 21 23  1  0
 21 24  1  0
 21 25  1  0
M  END
>  <SMILES>  (1) 
CNC(=O)CSP(OC)(OC)=S=O

>  <Molecular Weight>  (1) 
245.3

>  <Substrate_ID>  (1) 
MOL0079

>  <Substrate>  (1) 


>  <Substrate_SMILES>  (1) 
CNC(=O)CSP(=S)(OC)OC

>  <Reaction>  (1) 
S-oxidation

>  <Score>  (1) 
0.3508

>  <Reaction_Score>  (1) 
0.1708

>  <Bond_Score>  (1) 
0.7203

>  <Rank>  (1) 
1

>  <Subtype>  (1) 
1A2, 2A6, 2B6, 2C8, 2C9, 2C19, 2D6, 2E1

>  <Subtype_Scores>  (1) 
[1A2] SOM_score: 0.5413, Reaction_score: 0.1708, Score: 0.3041
[2A6] SOM_score: 0.2978, Reaction_score: 0.1708, Score: 0.2255
[2B6] SOM_score: 0.7203, Reaction_score: 0.1708, Score: 0.3508
[2C8] SOM_score: 0.4249, Reaction_score: 0.1708, Score: 0.2694
[2C9] SOM_score: 0.4482, Reaction_score: 0.1708, Score: 0.2767
[2C19] SOM_score: 0.6296, Reaction_score: 0.1708, Score: 0.3279
[2D6] SOM_score: 0.5004, Reaction_score: 0.1708, Score: 0.2923
[2E1] SOM_score: 0.1961, Reaction_score: 0.1708, Score: 0.1830


$$$$

     RDKit          2D

 24 23  0  0  0  0  0  0  0  0999 V2000
    2.5981    3.0000    0.0000 P   0  0  0  0  0  5  0  0  0  3  0  0
    4.0981    3.0000    0.0000 O   0  0  0  0  0  0  0  0  0 13  0  0
    2.5981    1.5000    0.0000 S   0  0  0  0  0  0  0  0  0  1  0  0
    1.0981    3.0000    0.0000 O   0  0  0  0  0  0  0  0  0  5  0  0
    2.5981    4.5000    0.0000 O   0  0  0  0  0  0  0  0  0  6  0  0
    1.2990    0.7500    0.0000 C   0  0  0  0  0  0  0  0  0  9  0  0
    0.3481    4.2990    0.0000 C   0  0  0  0  0  0  0  0  0 10  0  0
    3.8971    5.2500    0.0000 C   0  0  0  0  0  0  0  0  0 11  0  0
    0.0000    0.0000    0.0000 C   0  0  0  0  0  0  0  0  0  8  0  0
    2.0490   -0.5490    0.0000 H   0  0  0  0  0  0  0  0  0  0  0  0
    0.5490    2.0490    0.0000 H   0  0  0  0  0  0  0  0  0  0  0  0
   -0.4019    5.5981    0.0000 H   0  0  0  0  0  0  0  0  0  0  0  0
   -0.9510    3.5490    0.0000 H   0  0  0  0  0  0  0  0  0  0  0  0
    1.6471    5.0490    0.0000 H   0  0  0  0  0  0  0  0  0  0  0  0
    5.1962    6.0000    0.0000 H   0  0  0  0  0  0  0  0  0  0  0  0
    3.1471    6.5490    0.0000 H   0  0  0  0  0  0  0  0  0  0  0  0
    4.6471    3.9510    0.0000 H   0  0  0  0  0  0  0  0  0  0  0  0
   -0.0000   -1.5000    0.0000 O   0  0  0  0  0  0  0  0  0  4  0  0
   -1.2990    0.7500    0.0000 N   0  0  0  0  0  0  0  0  0  7  0  0
   -2.5981    0.0000    0.0000 C   0  0  0  0  0  0  0  0  0 12  0  0
   -1.2990    2.2500    0.0000 H   0  0  0  0  0  0  0  0  0  0  0  0
   -3.8971   -0.7500    0.0000 H   0  0  0  0  0  0  0  0  0  0  0  0
   -3.3481    1.2990    0.0000 H   0  0  0  0  0  0  0  0  0  0  0  0
   -1.8481   -1.2990    0.0000 H   0  0  0  0  0  0  0  0  0  0  0  0
  1  2  2  0
  3  1  1  0
  1  4  1  0
  1  5  1  0
  3  6  1  0
  4  7  1  0
  5  8  1  0
  6  9  1  0
  6 10  1  0
  6 11  1  0
  7 12  1  0
  7 13  1  0
  7 14  1  0
  8 15  1  0
  8 16  1  0
  8 17  1  0
  9 18  2  0
  9 19  1  0
 19 20  1  0
 19 21  1  0
 20 22  1  0
 20 23  1  0
 20 24  1  0
M  END
>  <SMILES>  (2) 
CNC(=O)CSP(=O)(OC)OC

>  <Molecular Weight>  (2) 
213.2

>  <Substrate_ID>  (2) 
MOL0079

>  <Substrate>  (2) 


>  <Substrate_SMILES>  (2) 
CNC(=O)CSP(=S)(OC)OC

>  <Reaction>  (2) 
phosphine_sulphide_hydrolysis

>  <Score>  (2) 
0.1984

>  <Reaction_Score>  (2) 
0.0539

>  <Bond_Score>  (2) 
0.7303

>  <Rank>  (2) 
2

>  <Subtype>  (2) 
1A2, 2A6, 2B6, 2C8, 2C9, 2C19, 2D6, 2E1

>  <Subtype_Scores>  (2) 
[1A2] SOM_score: 0.6014, Reaction_score: 0.0539, Score: 0.1801
[2A6] SOM_score: 0.2007, Reaction_score: 0.0539, Score: 0.1040
[2B6] SOM_score: 0.7303, Reaction_score: 0.0539, Score: 0.1984
[2C8] SOM_score: 0.5541, Reaction_score: 0.0539, Score: 0.1729
[2C9] SOM_score: 0.4038, Reaction_score: 0.0539, Score: 0.1476
[2C19] SOM_score: 0.5933, Reaction_score: 0.0539, Score: 0.1789
[2D6] SOM_score: 0.4715, Reaction_score: 0.0539, Score: 0.1594
[2E1] SOM_score: 0.1950, Reaction_score: 0.0539, Score: 0.1025


$$$$

     RDKit          2D

 25 24  0  0  0  0  0  0  0  0999 V2000
    2.5981    1.5000    0.0000 S   0  0  0  0  0  4  0  0  0  1  0  0
    2.5981    3.0000    0.0000 O   0  0  0  0  0  0  0  0  0 13  0  0
    3.8971    0.7500    0.0000 P   0  0  0  0  0  5  0  0  0  3  0  0
    1.2990    0.7500    0.0000 C   0  0  0  0  0  0  0  0  0  9  0  0
    5.1962    0.0000    0.0000 S   0  0  0  0  0  0  0  0  0  2  0  0
    4.6471    2.0490    0.0000 O   0  0  0  0  0  0  0  0  0  5  0  0
    3.1471   -0.5490    0.0000 O   0  0  0  0  0  0  0  0  0  6  0  0
    0.0000    0.0000    0.0000 C   0  0  0  0  0  0  0  0  0  8  0  0
    2.0490   -0.5490    0.0000 H   0  0  0  0  0  0  0  0  0  0  0  0
    0.5490    2.0490    0.0000 H   0  0  0  0  0  0  0  0  0  0  0  0
    6.1471    2.0490    0.0000 C   0  0  0  0  0  0  0  0  0 10  0  0
    3.8971   -1.8481    0.0000 C   0  0  0  0  0  0  0  0  0 11  0  0
   -0.0000   -1.5000    0.0000 O   0  0  0  0  0  0  0  0  0  4  0  0
   -1.2990    0.7500    0.0000 N   0  0  0  0  0  0  0  0  0  7  0  0
    7.6471    2.0490    0.0000 H   0  0  0  0  0  0  0  0  0  0  0  0
    6.1471    3.5490    0.0000 H   0  0  0  0  0  0  0  0  0  0  0  0
    6.1471    0.5490    0.0000 H   0  0  0  0  0  0  0  0  0  0  0  0
    4.6471   -3.1471    0.0000 H   0  0  0  0  0  0  0  0  0  0  0  0
    2.5981   -2.5981    0.0000 H   0  0  0  0  0  0  0  0  0  0  0  0
    5.1962   -1.0981    0.0000 H   0  0  0  0  0  0  0  0  0  0  0  0
   -2.5981    0.0000    0.0000 C   0  0  0  0  0  0  0  0  0 12  0  0
   -1.2990    2.2500    0.0000 H   0  0  0  0  0  0  0  0  0  0  0  0
   -3.8971   -0.7500    0.0000 H   0  0  0  0  0  0  0  0  0  0  0  0
   -3.3481    1.2990    0.0000 H   0  0  0  0  0  0  0  0  0  0  0  0
   -1.8481   -1.2990    0.0000 H   0  0  0  0  0  0  0  0  0  0  0  0
  1  2  2  0
  1  3  1  0
  1  4  1  0
  3  5  2  0
  3  6  1  0
  3  7  1  0
  4  8  1  0
  4  9  1  0
  4 10  1  0
  6 11  1  0
  7 12  1  0
  8 13  2  0
  8 14  1  0
 11 15  1  0
 11 16  1  0
 11 17  1  0
 12 18  1  0
 12 19  1  0
 12 20  1  0
 14 21  1  0
 14 22  1  0
 21 23  1  0
 21 24  1  0
 21 25  1  0
M  END
>  <SMILES>  (3) 
CNC(=O)CS(=O)P(=S)(OC)OC

>  <Molecular Weight>  (3) 
245.3

>  <Substrate_ID>  (3) 
MOL0079

>  <Substrate>  (3) 


>  <Substrate_SMILES>  (3) 
CNC(=O)CSP(=S)(OC)OC

>  <Reaction>  (3) 
S-oxidation

>  <Score>  (3) 
0.1174

>  <Reaction_Score>  (3) 
0.0807

>  <Bond_Score>  (3) 
0.1709

>  <Rank>  (3) 
3

>  <Subtype>  (3) 
2A6, 2B6, 2C9, 2C19, 2E1

>  <Subtype_Scores>  (3) 
[2A6] SOM_score: 0.1626, Reaction_score: 0.0807, Score: 0.1146
[2B6] SOM_score: 0.1649, Reaction_score: 0.0807, Score: 0.1153
[2C9] SOM_score: 0.1604, Reaction_score: 0.0807, Score: 0.1138
[2C19] SOM_score: 0.1652, Reaction_score: 0.0807, Score: 0.1155
[2E1] SOM_score: 0.1110, Reaction_score: 0.0807, Score: 0.0947


$$$$
