BTM00001
  CDK     07192412432D

  7  6  0  0  0  0  0  0  0  0999 V2000
    3.8971   -0.7500    0.0000 O   0  0  0  0  0  0  0  0  0  0  0  0
    2.5981   -0.0000    0.0000 C   0  0  0  0  0  0  0  0  0  0  0  0
    2.5981    1.5000    0.0000 O   0  0  0  0  0  0  0  0  0  0  0  0
    1.2990   -0.7500    0.0000 C   0  0  0  0  0  0  0  0  0  0  0  0
    0.0000    0.0000    0.0000 C   0  0  0  0  0  0  0  0  0  0  0  0
    5.1962   -0.0000    0.0000 C   0  0  0  0  0  0  0  0  0  0  0  0
    1.2990   -2.2500    0.0000 O   0  0  0  0  0  0  0  0  0  0  0  0
  1  2  1  0  0  0  0 
  2  3  2  0  0  0  0 
  4  2  1  0  0  0  0 
  4  5  1  0  0  0  0 
  1  6  1  0  0  0  0 
  4  7  2  0  0  0  0 
M  END
> <InChI>
InChI=1S/C4H6O3/c1-3(5)4(6)7-2/h1-2H3

> <InChIKey>
CWKLZLBVOJRSOM-UHFFFAOYSA-N

> <SMILES>
O(C(=O)C(C)=O)C

> <Synonyms>


> <PUBCHEM_CID>


> <Molecular_formula>
C4H6O3

> <Major_Isotope_Mass>
102.03169405199999

> <ALogP>
-0.24270000000000036

> <Lipinski_Violations>
0

> <Insecticide_Likeness_Violations>
0

> <Post_Em_Herbicide_Likeness_Violations>
0

> <Metabolite_ID>
BTM00001

> <Reaction>
N-Dealkylation of tertiary carboxamide

> <Reaction_ID>
BTMR1139

> <Enzyme(s)>
CYP2B6
CYP2C9
CYP2C19
CYP3A4

> <Biosystem>
HUMAN

> <Precursor_ID>
TEST0085_METALAXYL

> <Precursor_SMILES>
O(C(=O)[C@@H](N(C1=C(C=CC=C1C)C)C(=O)COC)C)C

> <Precursor_InChI>
InChI=1S/C15H21NO4/c1-10-7-6-8-11(2)14(10)16(13(17)9-19-4)12(3)15(18)20-5/h6-8,12H,9H2,1-5H3/t12-/m0/s1

> <Precursor_InChIKey>
ZQEIXNIJLIKNTD-LBPRGKRZSA-N

> <Precursor_ALogP>
1.795699

> <Precursor_Major_Isotope_Mass>
279.1470

$$$$
BTM00002
  CDK     07192412432D

 14 14  0  0  0  0  0  0  0  0999 V2000
    2.0189   -1.1702    0.0000 N   0  0  0  0  0  0  0  0  0  0  0  0
    0.7200   -0.4200    0.0000 C   0  0  0  0  0  0  0  0  0  0  0  0
   -0.5800   -1.1700    0.0000 C   0  0  0  0  0  0  0  0  0  0  0  0
   -1.8800   -0.4200    0.0000 C   0  0  0  0  0  0  0  0  0  0  0  0
   -1.8800    1.0800    0.0000 C   0  0  0  0  0  0  0  0  0  0  0  0
   -0.5800    1.8300    0.0000 C   0  0  0  0  0  0  0  0  0  0  0  0
    0.7200    1.0800    0.0000 C   0  0  0  0  0  0  0  0  0  0  0  0
    2.0189    1.8302    0.0000 C   0  0  0  0  0  0  0  0  0  0  0  0
   -0.5800   -2.6700    0.0000 C   0  0  0  0  0  0  0  0  0  0  0  0
    3.3181   -0.4204    0.0000 C   0  0  0  0  0  0  0  0  0  0  0  0
    3.3183    1.0796    0.0000 O   0  0  0  0  0  0  0  0  0  0  0  0
    4.6170   -1.1706    0.0000 C   0  0  0  0  0  0  0  0  0  0  0  0
    5.9162   -0.4208    0.0000 O   0  0  0  0  0  0  0  0  0  0  0  0
    7.2151   -1.1710    0.0000 C   0  0  0  0  0  0  0  0  0  0  0  0
  1  2  1  0  0  0  0 
  2  3  2  0  0  0  0 
  3  4  1  0  0  0  0 
  4  5  2  0  0  0  0 
  5  6  1  0  0  0  0 
  6  7  2  0  0  0  0 
  2  7  1  0  0  0  0 
  7  8  1  0  0  0  0 
  3  9  1  0  0  0  0 
  1 10  1  0  0  0  0 
 10 11  2  0  0  0  0 
 10 12  1  0  0  0  0 
 12 13  1  0  0  0  0 
 13 14  1  0  0  0  0 
M  END
> <InChI>
InChI=1S/C11H15NO2/c1-8-5-4-6-9(2)11(8)12-10(13)7-14-3/h4-6H,7H2,1-3H3,(H,12,13)

> <InChIKey>
OXXYGGDIKKXTFB-UHFFFAOYSA-N

> <SMILES>
N(C1=C(C=CC=C1C)C)C(=O)COC

> <Synonyms>


> <PUBCHEM_CID>


> <Molecular_formula>
C11H15NO2

> <Major_Isotope_Mass>
193.11027872

> <ALogP>
1.8903000000000008

> <Lipinski_Violations>
0

> <Insecticide_Likeness_Violations>
0

> <Post_Em_Herbicide_Likeness_Violations>
0

> <Metabolite_ID>
BTM00002

> <Reaction>
N-Dealkylation of tertiary carboxamide

> <Reaction_ID>
BTMR1139

> <Enzyme(s)>
CYP2B6
CYP2C9
CYP2C19
CYP3A4

> <Biosystem>
HUMAN

> <Precursor_ID>
TEST0085_METALAXYL

> <Precursor_SMILES>
O(C(=O)[C@@H](N(C1=C(C=CC=C1C)C)C(=O)COC)C)C

> <Precursor_InChI>
InChI=1S/C15H21NO4/c1-10-7-6-8-11(2)14(10)16(13(17)9-19-4)12(3)15(18)20-5/h6-8,12H,9H2,1-5H3/t12-/m0/s1

> <Precursor_InChIKey>
ZQEIXNIJLIKNTD-LBPRGKRZSA-N

> <Precursor_ALogP>
1.795699

> <Precursor_Major_Isotope_Mass>
279.1470

$$$$
BTM00001
  CDK     07192412432D

  7  6  0  0  0  0  0  0  0  0999 V2000
    3.8971   -0.7500    0.0000 O   0  0  0  0  0  0  0  0  0  0  0  0
    2.5981   -0.0000    0.0000 C   0  0  0  0  0  0  0  0  0  0  0  0
    2.5981    1.5000    0.0000 O   0  0  0  0  0  0  0  0  0  0  0  0
    1.2990   -0.7500    0.0000 C   0  0  0  0  0  0  0  0  0  0  0  0
    0.0000    0.0000    0.0000 C   0  0  0  0  0  0  0  0  0  0  0  0
    5.1962   -0.0000    0.0000 C   0  0  0  0  0  0  0  0  0  0  0  0
    1.2990   -2.2500    0.0000 O   0  0  0  0  0  0  0  0  0  0  0  0
  1  2  1  0  0  0  0 
  2  3  2  0  0  0  0 
  4  2  1  0  0  0  0 
  4  5  1  0  0  0  0 
  1  6  1  0  0  0  0 
  4  7  2  0  0  0  0 
M  END
> <InChI>
InChI=1S/C4H6O3/c1-3(5)4(6)7-2/h1-2H3

> <InChIKey>
CWKLZLBVOJRSOM-UHFFFAOYSA-N

> <SMILES>
O(C(=O)C(C)=O)C

> <Synonyms>


> <PUBCHEM_CID>


> <Molecular_formula>
C4H6O3

> <Major_Isotope_Mass>
102.03169405199999

> <ALogP>
-0.24270000000000036

> <Lipinski_Violations>
0

> <Insecticide_Likeness_Violations>
0

> <Post_Em_Herbicide_Likeness_Violations>
0

> <Metabolite_ID>
BTM00001

> <Reaction>
N-Dealkylation of tertiary carboxamide

> <Reaction_ID>
BTMR1245

> <Enzyme(s)>
CYP2B6
CYP2C9
CYP2C19
CYP3A4

> <Biosystem>
HUMAN

> <Precursor_ID>
TEST0085_METALAXYL

> <Precursor_SMILES>
O(C(=O)[C@@H](N(C1=C(C=CC=C1C)C)C(=O)COC)C)C

> <Precursor_InChI>
InChI=1S/C15H21NO4/c1-10-7-6-8-11(2)14(10)16(13(17)9-19-4)12(3)15(18)20-5/h6-8,12H,9H2,1-5H3/t12-/m0/s1

> <Precursor_InChIKey>
ZQEIXNIJLIKNTD-LBPRGKRZSA-N

> <Precursor_ALogP>
1.795699

> <Precursor_Major_Isotope_Mass>
279.1470

$$$$
BTM00002
  CDK     07192412432D

 14 14  0  0  0  0  0  0  0  0999 V2000
    2.0189   -1.1702    0.0000 N   0  0  0  0  0  0  0  0  0  0  0  0
    0.7200   -0.4200    0.0000 C   0  0  0  0  0  0  0  0  0  0  0  0
   -0.5800   -1.1700    0.0000 C   0  0  0  0  0  0  0  0  0  0  0  0
   -1.8800   -0.4200    0.0000 C   0  0  0  0  0  0  0  0  0  0  0  0
   -1.8800    1.0800    0.0000 C   0  0  0  0  0  0  0  0  0  0  0  0
   -0.5800    1.8300    0.0000 C   0  0  0  0  0  0  0  0  0  0  0  0
    0.7200    1.0800    0.0000 C   0  0  0  0  0  0  0  0  0  0  0  0
    2.0189    1.8302    0.0000 C   0  0  0  0  0  0  0  0  0  0  0  0
   -0.5800   -2.6700    0.0000 C   0  0  0  0  0  0  0  0  0  0  0  0
    3.3181   -0.4204    0.0000 C   0  0  0  0  0  0  0  0  0  0  0  0
    3.3183    1.0796    0.0000 O   0  0  0  0  0  0  0  0  0  0  0  0
    4.6170   -1.1706    0.0000 C   0  0  0  0  0  0  0  0  0  0  0  0
    5.9162   -0.4208    0.0000 O   0  0  0  0  0  0  0  0  0  0  0  0
    7.2151   -1.1710    0.0000 C   0  0  0  0  0  0  0  0  0  0  0  0
  1  2  1  0  0  0  0 
  2  3  2  0  0  0  0 
  3  4  1  0  0  0  0 
  4  5  2  0  0  0  0 
  5  6  1  0  0  0  0 
  6  7  2  0  0  0  0 
  2  7  1  0  0  0  0 
  7  8  1  0  0  0  0 
  3  9  1  0  0  0  0 
  1 10  1  0  0  0  0 
 10 11  2  0  0  0  0 
 10 12  1  0  0  0  0 
 12 13  1  0  0  0  0 
 13 14  1  0  0  0  0 
M  END
> <InChI>
InChI=1S/C11H15NO2/c1-8-5-4-6-9(2)11(8)12-10(13)7-14-3/h4-6H,7H2,1-3H3,(H,12,13)

> <InChIKey>
OXXYGGDIKKXTFB-UHFFFAOYSA-N

> <SMILES>
N(C1=C(C=CC=C1C)C)C(=O)COC

> <Synonyms>


> <PUBCHEM_CID>


> <Molecular_formula>
C11H15NO2

> <Major_Isotope_Mass>
193.11027872

> <ALogP>
1.8903000000000008

> <Lipinski_Violations>
0

> <Insecticide_Likeness_Violations>
0

> <Post_Em_Herbicide_Likeness_Violations>
0

> <Metabolite_ID>
BTM00002

> <Reaction>
N-Dealkylation of tertiary carboxamide

> <Reaction_ID>
BTMR1245

> <Enzyme(s)>
CYP2B6
CYP2C9
CYP2C19
CYP3A4

> <Biosystem>
HUMAN

> <Precursor_ID>
TEST0085_METALAXYL

> <Precursor_SMILES>
O(C(=O)[C@@H](N(C1=C(C=CC=C1C)C)C(=O)COC)C)C

> <Precursor_InChI>
InChI=1S/C15H21NO4/c1-10-7-6-8-11(2)14(10)16(13(17)9-19-4)12(3)15(18)20-5/h6-8,12H,9H2,1-5H3/t12-/m0/s1

> <Precursor_InChIKey>
ZQEIXNIJLIKNTD-LBPRGKRZSA-N

> <Precursor_ALogP>
1.795699

> <Precursor_Major_Isotope_Mass>
279.1470

$$$$
BTM00003
  CDK     07192412432D

 21 21  0  0  1  0  0  0  0  0999 V2000
    3.3174   -4.9204    0.0000 O   0  0  0  0  0  0  0  0  0  0  0  0
    3.3176   -3.4204    0.0000 C   0  0  0  0  0  0  0  0  0  0  0  0
    4.6168   -2.6706    0.0000 O   0  0  0  0  0  0  0  0  0  0  0  0
    2.0187   -2.6702    0.0000 C   0  0  1  0  0  0  0  0  0  0  0  0
    2.0189   -1.1702    0.0000 N   0  0  0  0  0  0  0  0  0  0  0  0
    0.7200   -0.4200    0.0000 C   0  0  0  0  0  0  0  0  0  0  0  0
   -0.5800   -1.1700    0.0000 C   0  0  0  0  0  0  0  0  0  0  0  0
   -1.8800   -0.4200    0.0000 C   0  0  0  0  0  0  0  0  0  0  0  0
   -1.8800    1.0800    0.0000 C   0  0  0  0  0  0  0  0  0  0  0  0
   -0.5800    1.8300    0.0000 C   0  0  0  0  0  0  0  0  0  0  0  0
    0.7200    1.0800    0.0000 C   0  0  0  0  0  0  0  0  0  0  0  0
    2.0189    1.8302    0.0000 C   0  0  0  0  0  0  0  0  0  0  0  0
   -0.5800   -2.6700    0.0000 C   0  0  0  0  0  0  0  0  0  0  0  0
    3.3181   -0.4204    0.0000 C   0  0  0  0  0  0  0  0  0  0  0  0
    3.3183    1.0796    0.0000 O   0  0  0  0  0  0  0  0  0  0  0  0
    4.6170   -1.1706    0.0000 C   0  0  0  0  0  0  0  0  0  0  0  0
    5.9162   -0.4208    0.0000 O   0  0  0  0  0  0  0  0  0  0  0  0
    7.2151   -1.1710    0.0000 C   0  0  0  0  0  0  0  0  0  0  0  0
    0.7195   -3.4200    0.0000 C   0  0  0  0  0  0  0  0  0  0  0  0
    4.6163   -5.6706    0.0000 C   0  0  0  0  0  0  0  0  0  0  0  0
   -1.8790   -3.4200    0.0000 O   0  0  0  0  0  0  0  0  0  0  0  0
  1  2  1  0  0  0  0 
  2  3  2  0  0  0  0 
  4  2  1  0  0  0  0 
  4  5  1  0  0  0  0 
  5  6  1  0  0  0  0 
  6  7  2  0  0  0  0 
  7  8  1  0  0  0  0 
  8  9  2  0  0  0  0 
  9 10  1  0  0  0  0 
 10 11  2  0  0  0  0 
  6 11  1  0  0  0  0 
 11 12  1  0  0  0  0 
  7 13  1  0  0  0  0 
  5 14  1  0  0  0  0 
 14 15  2  0  0  0  0 
 14 16  1  0  0  0  0 
 16 17  1  0  0  0  0 
 17 18  1  0  0  0  0 
  4 19  1  6  0  0  0 
  1 20  1  0  0  0  0 
 21 13  1  0  0  0  0 
M  END
> <InChI>
InChI=1S/C15H21NO5/c1-10-6-5-7-12(8-17)14(10)16(13(18)9-20-3)11(2)15(19)21-4/h5-7,11,17H,8-9H2,1-4H3/t11-/m0/s1

> <InChIKey>
JRTUFKUEKGCXQP-NSHDSACASA-N

> <SMILES>
O(C(=O)[C@@H](N(C1=C(C=CC=C1C)CO)C(=O)COC)C)C

> <Synonyms>


> <PUBCHEM_CID>


> <Molecular_formula>
C15H21NO5

> <Major_Isotope_Mass>
295.14197277200003

> <ALogP>
0.7049999999999993

> <Lipinski_Violations>
0

> <Insecticide_Likeness_Violations>
0

> <Post_Em_Herbicide_Likeness_Violations>
0

> <Metabolite_ID>
BTM00003

> <Reaction>
Aliphatic hydroxylation of methyl carbon adjacent to aromatic ring

> <Reaction_ID>
BTMR1058

> <Enzyme(s)>
CYP2B6
CYP2C9
CYP2C19
CYP3A4

> <Biosystem>
HUMAN

> <Precursor_ID>
TEST0085_METALAXYL

> <Precursor_SMILES>
O(C(=O)[C@@H](N(C1=C(C=CC=C1C)C)C(=O)COC)C)C

> <Precursor_InChI>
InChI=1S/C15H21NO4/c1-10-7-6-8-11(2)14(10)16(13(17)9-19-4)12(3)15(18)20-5/h6-8,12H,9H2,1-5H3/t12-/m0/s1

> <Precursor_InChIKey>
ZQEIXNIJLIKNTD-LBPRGKRZSA-N

> <Precursor_ALogP>
1.795699

> <Precursor_Major_Isotope_Mass>
279.1470

$$$$
BTM00003
  CDK     07192412432D

 21 21  0  0  1  0  0  0  0  0999 V2000
    3.3174   -4.9204    0.0000 O   0  0  0  0  0  0  0  0  0  0  0  0
    3.3176   -3.4204    0.0000 C   0  0  0  0  0  0  0  0  0  0  0  0
    4.6168   -2.6706    0.0000 O   0  0  0  0  0  0  0  0  0  0  0  0
    2.0187   -2.6702    0.0000 C   0  0  1  0  0  0  0  0  0  0  0  0
    2.0189   -1.1702    0.0000 N   0  0  0  0  0  0  0  0  0  0  0  0
    0.7200   -0.4200    0.0000 C   0  0  0  0  0  0  0  0  0  0  0  0
   -0.5800   -1.1700    0.0000 C   0  0  0  0  0  0  0  0  0  0  0  0
   -1.8800   -0.4200    0.0000 C   0  0  0  0  0  0  0  0  0  0  0  0
   -1.8800    1.0800    0.0000 C   0  0  0  0  0  0  0  0  0  0  0  0
   -0.5800    1.8300    0.0000 C   0  0  0  0  0  0  0  0  0  0  0  0
    0.7200    1.0800    0.0000 C   0  0  0  0  0  0  0  0  0  0  0  0
    2.0189    1.8302    0.0000 C   0  0  0  0  0  0  0  0  0  0  0  0
   -0.5800   -2.6700    0.0000 C   0  0  0  0  0  0  0  0  0  0  0  0
    3.3181   -0.4204    0.0000 C   0  0  0  0  0  0  0  0  0  0  0  0
    3.3183    1.0796    0.0000 O   0  0  0  0  0  0  0  0  0  0  0  0
    4.6170   -1.1706    0.0000 C   0  0  0  0  0  0  0  0  0  0  0  0
    5.9162   -0.4208    0.0000 O   0  0  0  0  0  0  0  0  0  0  0  0
    7.2151   -1.1710    0.0000 C   0  0  0  0  0  0  0  0  0  0  0  0
    0.7195   -3.4200    0.0000 C   0  0  0  0  0  0  0  0  0  0  0  0
    4.6163   -5.6706    0.0000 C   0  0  0  0  0  0  0  0  0  0  0  0
   -1.8790   -3.4200    0.0000 O   0  0  0  0  0  0  0  0  0  0  0  0
  1  2  1  0  0  0  0 
  2  3  2  0  0  0  0 
  4  2  1  0  0  0  0 
  4  5  1  0  0  0  0 
  5  6  1  0  0  0  0 
  6  7  2  0  0  0  0 
  7  8  1  0  0  0  0 
  8  9  2  0  0  0  0 
  9 10  1  0  0  0  0 
 10 11  2  0  0  0  0 
  6 11  1  0  0  0  0 
 11 12  1  0  0  0  0 
  7 13  1  0  0  0  0 
  5 14  1  0  0  0  0 
 14 15  2  0  0  0  0 
 14 16  1  0  0  0  0 
 16 17  1  0  0  0  0 
 17 18  1  0  0  0  0 
  4 19  1  6  0  0  0 
  1 20  1  0  0  0  0 
 21 13  1  0  0  0  0 
M  END
> <InChI>
InChI=1S/C15H21NO5/c1-10-6-5-7-12(8-17)14(10)16(13(18)9-20-3)11(2)15(19)21-4/h5-7,11,17H,8-9H2,1-4H3/t11-/m0/s1

> <InChIKey>
JRTUFKUEKGCXQP-NSHDSACASA-N

> <SMILES>
O(C(=O)[C@@H](N(C1=C(C=CC=C1C)CO)C(=O)COC)C)C

> <Synonyms>


> <PUBCHEM_CID>


> <Molecular_formula>
C15H21NO5

> <Major_Isotope_Mass>
295.14197277200003

> <ALogP>
0.7049999999999993

> <Lipinski_Violations>
0

> <Insecticide_Likeness_Violations>
0

> <Post_Em_Herbicide_Likeness_Violations>
0

> <Metabolite_ID>
BTM00003

> <Reaction>
Allylic hydroxylation

> <Reaction_ID>
BTMR0071

> <Enzyme(s)>
CYP2B6
CYP2C19
CYP3A4

> <Biosystem>
HUMAN

> <Precursor_ID>
TEST0085_METALAXYL

> <Precursor_SMILES>
O(C(=O)[C@@H](N(C1=C(C=CC=C1C)C)C(=O)COC)C)C

> <Precursor_InChI>
InChI=1S/C15H21NO4/c1-10-7-6-8-11(2)14(10)16(13(17)9-19-4)12(3)15(18)20-5/h6-8,12H,9H2,1-5H3/t12-/m0/s1

> <Precursor_InChIKey>
ZQEIXNIJLIKNTD-LBPRGKRZSA-N

> <Precursor_ALogP>
1.795699

> <Precursor_Major_Isotope_Mass>
279.1470

$$$$
BTM00004
  CDK     07192412432D

 21 21  0  0  1  0  0  0  0  0999 V2000
    3.3174   -4.9204    0.0000 O   0  0  0  0  0  0  0  0  0  0  0  0
    3.3176   -3.4204    0.0000 C   0  0  0  0  0  0  0  0  0  0  0  0
    4.6168   -2.6706    0.0000 O   0  0  0  0  0  0  0  0  0  0  0  0
    2.0187   -2.6702    0.0000 C   0  0  1  0  0  0  0  0  0  0  0  0
    2.0189   -1.1702    0.0000 N   0  0  0  0  0  0  0  0  0  0  0  0
    0.7200   -0.4200    0.0000 C   0  0  0  0  0  0  0  0  0  0  0  0
   -0.5800   -1.1700    0.0000 C   0  0  0  0  0  0  0  0  0  0  0  0
   -1.8800   -0.4200    0.0000 C   0  0  0  0  0  0  0  0  0  0  0  0
   -1.8800    1.0800    0.0000 C   0  0  0  0  0  0  0  0  0  0  0  0
   -0.5800    1.8300    0.0000 C   0  0  0  0  0  0  0  0  0  0  0  0
    0.7200    1.0800    0.0000 C   0  0  0  0  0  0  0  0  0  0  0  0
    2.0189    1.8302    0.0000 C   0  0  0  0  0  0  0  0  0  0  0  0
   -0.5800   -2.6700    0.0000 C   0  0  0  0  0  0  0  0  0  0  0  0
    3.3181   -0.4204    0.0000 C   0  0  0  0  0  0  0  0  0  0  0  0
    3.3183    1.0796    0.0000 O   0  0  0  0  0  0  0  0  0  0  0  0
    4.6170   -1.1706    0.0000 C   0  0  0  0  0  0  0  0  0  0  0  0
    5.9162   -0.4208    0.0000 O   0  0  0  0  0  0  0  0  0  0  0  0
    7.2151   -1.1710    0.0000 C   0  0  0  0  0  0  0  0  0  0  0  0
    0.7195   -3.4200    0.0000 C   0  0  0  0  0  0  0  0  0  0  0  0
    4.6163   -5.6706    0.0000 C   0  0  0  0  0  0  0  0  0  0  0  0
    0.7193   -4.9200    0.0000 O   0  0  0  0  0  0  0  0  0  0  0  0
  1  2  1  0  0  0  0 
  2  3  2  0  0  0  0 
  4  2  1  0  0  0  0 
  4  5  1  6  0  0  0 
  5  6  1  0  0  0  0 
  6  7  2  0  0  0  0 
  7  8  1  0  0  0  0 
  8  9  2  0  0  0  0 
  9 10  1  0  0  0  0 
 10 11  2  0  0  0  0 
  6 11  1  0  0  0  0 
 11 12  1  0  0  0  0 
  7 13  1  0  0  0  0 
  5 14  1  0  0  0  0 
 14 15  2  0  0  0  0 
 14 16  1  0  0  0  0 
 16 17  1  0  0  0  0 
 17 18  1  0  0  0  0 
  4 19  1  0  0  0  0 
  1 20  1  0  0  0  0 
 21 19  1  0  0  0  0 
M  END
> <InChI>
InChI=1S/C15H21NO5/c1-10-6-5-7-11(2)14(10)16(13(18)9-20-3)12(8-17)15(19)21-4/h5-7,12,17H,8-9H2,1-4H3/t12-/m0/s1

> <InChIKey>
WDLYOECFXMKGHF-LBPRGKRZSA-N

> <SMILES>
O(C(=O)[C@@H](N(C1=C(C=CC=C1C)C)C(=O)COC)CO)C

> <Synonyms>


> <PUBCHEM_CID>


> <Molecular_formula>
C15H21NO5

> <Major_Isotope_Mass>
295.14197277200003

> <ALogP>
1.2956999999999983

> <Lipinski_Violations>
0

> <Insecticide_Likeness_Violations>
0

> <Post_Em_Herbicide_Likeness_Violations>
0

> <Metabolite_ID>
BTM00004

> <Reaction>
Hydroxylation of terminal methyl

> <Reaction_ID>
BTMR1061

> <Enzyme(s)>
CYP2B6
CYP2C9
CYP2C19
CYP3A4

> <Biosystem>
HUMAN

> <Precursor_ID>
TEST0085_METALAXYL

> <Precursor_SMILES>
O(C(=O)[C@@H](N(C1=C(C=CC=C1C)C)C(=O)COC)C)C

> <Precursor_InChI>
InChI=1S/C15H21NO4/c1-10-7-6-8-11(2)14(10)16(13(17)9-19-4)12(3)15(18)20-5/h6-8,12H,9H2,1-5H3/t12-/m0/s1

> <Precursor_InChIKey>
ZQEIXNIJLIKNTD-LBPRGKRZSA-N

> <Precursor_ALogP>
1.795699

> <Precursor_Major_Isotope_Mass>
279.1470

$$$$
BTM00005
  CDK     07192412432D

 21 21  0  0  1  0  0  0  0  0999 V2000
   -3.8974    5.2504    0.0000 O   0  0  0  0  0  0  0  0  0  0  0  0
   -3.8976    3.7504    0.0000 C   0  0  0  0  0  0  0  0  0  0  0  0
   -5.1968    3.0006    0.0000 O   0  0  0  0  0  0  0  0  0  0  0  0
   -2.5987    3.0002    0.0000 C   0  0  1  0  0  0  0  0  0  0  0  0
   -2.5989    1.5002    0.0000 N   0  0  0  0  0  0  0  0  0  0  0  0
   -1.3000    0.7500    0.0000 C   0  0  0  0  0  0  0  0  0  0  0  0
    0.0000    1.5000    0.0000 C   0  0  0  0  0  0  0  0  0  0  0  0
    1.3000    0.7500    0.0000 C   0  0  0  0  0  0  0  0  0  0  0  0
    1.3000   -0.7500    0.0000 C   0  0  0  0  0  0  0  0  0  0  0  0
    0.0000   -1.5000    0.0000 C   0  0  0  0  0  0  0  0  0  0  0  0
   -1.3000   -0.7500    0.0000 C   0  0  0  0  0  0  0  0  0  0  0  0
   -2.5989   -1.5002    0.0000 C   0  0  0  0  0  0  0  0  0  0  0  0
    0.0000    3.0000    0.0000 C   0  0  0  0  0  0  0  0  0  0  0  0
   -3.8981    0.7504    0.0000 C   0  0  0  0  0  0  0  0  0  0  0  0
   -3.8983   -0.7496    0.0000 O   0  0  0  0  0  0  0  0  0  0  0  0
   -5.1970    1.5006    0.0000 C   0  0  0  0  0  0  0  0  0  0  0  0
   -6.4962    0.7508    0.0000 O   0  0  0  0  0  0  0  0  0  0  0  0
   -7.7951    1.5010    0.0000 C   0  0  0  0  0  0  0  0  0  0  0  0
   -1.2995    3.7500    0.0000 C   0  0  0  0  0  0  0  0  0  0  0  0
   -5.1963    6.0006    0.0000 C   0  0  0  0  0  0  0  0  0  0  0  0
    2.5989   -1.5002    0.0000 O   0  0  0  0  0  0  0  0  0  0  0  0
  1  2  1  0  0  0  0 
  2  3  2  0  0  0  0 
  4  2  1  0  0  0  0 
  4  5  1  0  0  0  0 
  5  6  1  0  0  0  0 
  6  7  2  0  0  0  0 
  7  8  1  0  0  0  0 
  8  9  2  0  0  0  0 
  9 10  1  0  0  0  0 
 10 11  2  0  0  0  0 
  6 11  1  0  0  0  0 
 11 12  1  0  0  0  0 
  7 13  1  0  0  0  0 
  5 14  1  0  0  0  0 
 14 15  2  0  0  0  0 
 14 16  1  0  0  0  0 
 16 17  1  0  0  0  0 
 17 18  1  0  0  0  0 
  4 19  1  6  0  0  0 
  1 20  1  0  0  0  0 
 21  9  1  0  0  0  0 
M  END
> <InChI>
InChI=1S/C15H21NO5/c1-9-6-12(17)7-10(2)14(9)16(13(18)8-20-4)11(3)15(19)21-5/h6-7,11,17H,8H2,1-5H3/t11-/m0/s1

> <InChIKey>
VTADHHFFFPZTLS-NSHDSACASA-N

> <SMILES>
O(C(=O)[C@@H](N(C1=C(C=C(C=C1C)O)C)C(=O)COC)C)C

> <Synonyms>


> <PUBCHEM_CID>


> <Molecular_formula>
C15H21NO5

> <Major_Isotope_Mass>
295.14197277200003

> <ALogP>
1.5282999999999989

> <Lipinski_Violations>
0

> <Insecticide_Likeness_Violations>
0

> <Post_Em_Herbicide_Likeness_Violations>
0

> <Metabolite_ID>
BTM00005

> <Reaction>
Hydroxylation of benzene on carbon para to strongly electron donating group

> <Reaction_ID>
BTMR1048

> <Enzyme(s)>
CYP2B6
CYP2C9
CYP2C19
CYP3A4

> <Biosystem>
HUMAN

> <Precursor_ID>
TEST0085_METALAXYL

> <Precursor_SMILES>
O(C(=O)[C@@H](N(C1=C(C=CC=C1C)C)C(=O)COC)C)C

> <Precursor_InChI>
InChI=1S/C15H21NO4/c1-10-7-6-8-11(2)14(10)16(13(17)9-19-4)12(3)15(18)20-5/h6-8,12H,9H2,1-5H3/t12-/m0/s1

> <Precursor_InChIKey>
ZQEIXNIJLIKNTD-LBPRGKRZSA-N

> <Precursor_ALogP>
1.795699

> <Precursor_Major_Isotope_Mass>
279.1470

$$$$
BTM00006
  CDK     07192412432D

 21 22  0  0  1  0  0  0  0  0999 V2000
   -4.2674    5.2504    0.0000 O   0  0  0  0  0  0  0  0  0  0  0  0
   -4.2676    3.7504    0.0000 C   0  0  0  0  0  0  0  0  0  0  0  0
   -5.5668    3.0006    0.0000 O   0  0  0  0  0  0  0  0  0  0  0  0
   -2.9687    3.0002    0.0000 C   0  0  1  0  0  0  0  0  0  0  0  0
   -2.9689    1.5002    0.0000 N   0  0  0  0  0  0  0  0  0  0  0  0
   -1.6700    0.7500    0.0000 C   0  0  0  0  0  0  0  0  0  0  0  0
   -0.3700    1.5000    0.0000 C   0  0  0  0  0  0  0  0  0  0  0  0
    0.9300    0.7500    0.0000 C   0  0  0  0  0  0  0  0  0  0  0  0
    0.9300   -0.7500    0.0000 C   0  0  0  0  0  0  0  0  0  0  0  0
   -0.3700   -1.5000    0.0000 C   0  0  0  0  0  0  0  0  0  0  0  0
   -1.6700   -0.7500    0.0000 C   0  0  0  0  0  0  0  0  0  0  0  0
   -2.9689   -1.5002    0.0000 C   0  0  0  0  0  0  0  0  0  0  0  0
   -0.3700    3.0000    0.0000 C   0  0  0  0  0  0  0  0  0  0  0  0
   -4.2681    0.7504    0.0000 C   0  0  0  0  0  0  0  0  0  0  0  0
   -4.2683   -0.7496    0.0000 O   0  0  0  0  0  0  0  0  0  0  0  0
   -5.5670    1.5006    0.0000 C   0  0  0  0  0  0  0  0  0  0  0  0
   -6.8662    0.7508    0.0000 O   0  0  0  0  0  0  0  0  0  0  0  0
   -8.1651    1.5010    0.0000 C   0  0  0  0  0  0  0  0  0  0  0  0
   -1.6695    3.7500    0.0000 C   0  0  0  0  0  0  0  0  0  0  0  0
   -5.5663    6.0006    0.0000 C   0  0  0  0  0  0  0  0  0  0  0  0
    2.2300   -0.0000    0.0000 O   0  0  0  0  0  0  0  0  0  0  0  0
  1  2  1  0  0  0  0 
  2  3  2  0  0  0  0 
  4  2  1  0  0  0  0 
  4  5  1  0  0  0  0 
  5  6  1  0  0  0  0 
  6  7  2  0  0  0  0 
  7  8  1  0  0  0  0 
  8  9  1  0  0  0  0 
  9 10  1  0  0  0  0 
 10 11  2  0  0  0  0 
  6 11  1  0  0  0  0 
 11 12  1  0  0  0  0 
  7 13  1  0  0  0  0 
  5 14  1  0  0  0  0 
 14 15  2  0  0  0  0 
 14 16  1  0  0  0  0 
 16 17  1  0  0  0  0 
 17 18  1  0  0  0  0 
  4 19  1  6  0  0  0 
  1 20  1  0  0  0  0 
  8 21  1  0  0  0  0 
 21  9  1  0  0  0  0 
M  END
> <InChI>
InChI=1S/C15H21NO5/c1-8-6-11-14(21-11)9(2)13(8)16(12(17)7-19-4)10(3)15(18)20-5/h6,10-11,14H,7H2,1-5H3/t10-,11?,14?/m0/s1

> <InChIKey>
PXQGIKNZNXDOSJ-IFQILLTASA-N

> <SMILES>
O(C(=O)[C@@H](N(C1=C(C2C(C=C1C)O2)C)C(=O)COC)C)C

> <Synonyms>


> <PUBCHEM_CID>


> <Molecular_formula>
C15H21NO5

> <Major_Isotope_Mass>
295.14197277200003

> <ALogP>
0.1436999999999985

> <Lipinski_Violations>
0

> <Insecticide_Likeness_Violations>
0

> <Post_Em_Herbicide_Likeness_Violations>
0

> <Metabolite_ID>
BTM00006

> <Reaction>
Epoxidation of arene

> <Reaction_ID>
BTMR1028

> <Enzyme(s)>
CYP2B6
CYP2C9
CYP2C19
CYP3A4

> <Biosystem>
HUMAN

> <Precursor_ID>
TEST0085_METALAXYL

> <Precursor_SMILES>
O(C(=O)[C@@H](N(C1=C(C=CC=C1C)C)C(=O)COC)C)C

> <Precursor_InChI>
InChI=1S/C15H21NO4/c1-10-7-6-8-11(2)14(10)16(13(17)9-19-4)12(3)15(18)20-5/h6-8,12H,9H2,1-5H3/t12-/m0/s1

> <Precursor_InChIKey>
ZQEIXNIJLIKNTD-LBPRGKRZSA-N

> <Precursor_ALogP>
1.795699

> <Precursor_Major_Isotope_Mass>
279.1470

$$$$
BTM00007
  CDK     07192412432D

 21 21  0  0  1  0  0  0  0  0999 V2000
   -1.2988   -0.7500    0.0000 O   0  0  0  0  0  0  0  0  0  0  0  0
   -1.2986    0.7500    0.0000 C   0  0  0  0  0  0  0  0  0  0  0  0
    0.0006    1.4998    0.0000 O   0  0  0  0  0  0  0  0  0  0  0  0
   -2.5975    1.5002    0.0000 C   0  0  1  0  0  0  0  0  0  0  0  0
   -2.5972    3.0002    0.0000 N   0  0  0  0  0  0  0  0  0  0  0  0
   -3.8962    3.7504    0.0000 C   0  0  0  0  0  0  0  0  0  0  0  0
   -5.1962    3.0004    0.0000 C   0  0  0  0  0  0  0  0  0  0  0  0
   -6.4962    3.7504    0.0000 C   0  0  0  0  0  0  0  0  0  0  0  0
   -6.4962    5.2504    0.0000 C   0  0  0  0  0  0  0  0  0  0  0  0
   -5.1962    6.0004    0.0000 C   0  0  0  0  0  0  0  0  0  0  0  0
   -3.8962    5.2504    0.0000 C   0  0  0  0  0  0  0  0  0  0  0  0
   -2.5972    6.0006    0.0000 C   0  0  0  0  0  0  0  0  0  0  0  0
   -5.1962    1.5004    0.0000 C   0  0  0  0  0  0  0  0  0  0  0  0
   -1.2981    3.7500    0.0000 C   0  0  0  0  0  0  0  0  0  0  0  0
   -1.2978    5.2500    0.0000 O   0  0  0  0  0  0  0  0  0  0  0  0
    0.0008    2.9998    0.0000 C   0  0  0  0  0  0  0  0  0  0  0  0
    1.3000    3.7496    0.0000 O   0  0  0  0  0  0  0  0  0  0  0  0
    2.5989    2.9994    0.0000 C   0  0  0  0  0  0  0  0  0  0  0  0
   -3.8966    0.7504    0.0000 C   0  0  0  0  0  0  0  0  0  0  0  0
    0.0001   -1.5002    0.0000 C   0  0  0  0  0  0  0  0  0  0  0  0
   -7.7951    3.0002    0.0000 O   0  0  0  0  0  0  0  0  0  0  0  0
  1  2  1  0  0  0  0 
  2  3  2  0  0  0  0 
  4  2  1  0  0  0  0 
  4  5  1  0  0  0  0 
  5  6  1  0  0  0  0 
  6  7  2  0  0  0  0 
  7  8  1  0  0  0  0 
  8  9  2  0  0  0  0 
  9 10  1  0  0  0  0 
 10 11  2  0  0  0  0 
  6 11  1  0  0  0  0 
 11 12  1  0  0  0  0 
  7 13  1  0  0  0  0 
  5 14  1  0  0  0  0 
 14 15  2  0  0  0  0 
 14 16  1  0  0  0  0 
 16 17  1  0  0  0  0 
 17 18  1  0  0  0  0 
  4 19  1  6  0  0  0 
  1 20  1  0  0  0  0 
 21  8  1  0  0  0  0 
M  END
> <InChI>
InChI=1S/C15H21NO5/c1-9-6-7-12(17)10(2)14(9)16(13(18)8-20-4)11(3)15(19)21-5/h6-7,11,17H,8H2,1-5H3/t11-/m0/s1

> <InChIKey>
SKNRMURHENGAJU-NSHDSACASA-N

> <SMILES>
O(C(=O)[C@@H](N(C1=C(C(=CC=C1C)O)C)C(=O)COC)C)C

> <Synonyms>


> <PUBCHEM_CID>


> <Molecular_formula>
C15H21NO5

> <Major_Isotope_Mass>
295.14197277200003

> <ALogP>
1.5282999999999989

> <Lipinski_Violations>
0

> <Insecticide_Likeness_Violations>
0

> <Post_Em_Herbicide_Likeness_Violations>
0

> <Metabolite_ID>
BTM00007

> <Reaction>
Hydroxylation of benzene on carbon ortho to electron donating group

> <Reaction_ID>
BTMR1045

> <Enzyme(s)>
CYP2C9
CYP2C19
CYP3A4

> <Biosystem>
HUMAN

> <Precursor_ID>
TEST0085_METALAXYL

> <Precursor_SMILES>
O(C(=O)[C@@H](N(C1=C(C=CC=C1C)C)C(=O)COC)C)C

> <Precursor_InChI>
InChI=1S/C15H21NO4/c1-10-7-6-8-11(2)14(10)16(13(17)9-19-4)12(3)15(18)20-5/h6-8,12H,9H2,1-5H3/t12-/m0/s1

> <Precursor_InChIKey>
ZQEIXNIJLIKNTD-LBPRGKRZSA-N

> <Precursor_ALogP>
1.795699

> <Precursor_Major_Isotope_Mass>
279.1470

$$$$
BTM00007
  CDK     07192412432D

 21 21  0  0  1  0  0  0  0  0999 V2000
   -1.2988   -0.7500    0.0000 O   0  0  0  0  0  0  0  0  0  0  0  0
   -1.2986    0.7500    0.0000 C   0  0  0  0  0  0  0  0  0  0  0  0
    0.0006    1.4998    0.0000 O   0  0  0  0  0  0  0  0  0  0  0  0
   -2.5975    1.5002    0.0000 C   0  0  1  0  0  0  0  0  0  0  0  0
   -2.5972    3.0002    0.0000 N   0  0  0  0  0  0  0  0  0  0  0  0
   -3.8962    3.7504    0.0000 C   0  0  0  0  0  0  0  0  0  0  0  0
   -5.1962    3.0004    0.0000 C   0  0  0  0  0  0  0  0  0  0  0  0
   -6.4962    3.7504    0.0000 C   0  0  0  0  0  0  0  0  0  0  0  0
   -6.4962    5.2504    0.0000 C   0  0  0  0  0  0  0  0  0  0  0  0
   -5.1962    6.0004    0.0000 C   0  0  0  0  0  0  0  0  0  0  0  0
   -3.8962    5.2504    0.0000 C   0  0  0  0  0  0  0  0  0  0  0  0
   -2.5972    6.0006    0.0000 C   0  0  0  0  0  0  0  0  0  0  0  0
   -5.1962    1.5004    0.0000 C   0  0  0  0  0  0  0  0  0  0  0  0
   -1.2981    3.7500    0.0000 C   0  0  0  0  0  0  0  0  0  0  0  0
   -1.2978    5.2500    0.0000 O   0  0  0  0  0  0  0  0  0  0  0  0
    0.0008    2.9998    0.0000 C   0  0  0  0  0  0  0  0  0  0  0  0
    1.3000    3.7496    0.0000 O   0  0  0  0  0  0  0  0  0  0  0  0
    2.5989    2.9994    0.0000 C   0  0  0  0  0  0  0  0  0  0  0  0
   -3.8966    0.7504    0.0000 C   0  0  0  0  0  0  0  0  0  0  0  0
    0.0001   -1.5002    0.0000 C   0  0  0  0  0  0  0  0  0  0  0  0
   -7.7951    3.0002    0.0000 O   0  0  0  0  0  0  0  0  0  0  0  0
  1  2  1  0  0  0  0 
  2  3  2  0  0  0  0 
  4  2  1  0  0  0  0 
  4  5  1  0  0  0  0 
  5  6  1  0  0  0  0 
  6  7  2  0  0  0  0 
  7  8  1  0  0  0  0 
  8  9  2  0  0  0  0 
  9 10  1  0  0  0  0 
 10 11  2  0  0  0  0 
  6 11  1  0  0  0  0 
 11 12  1  0  0  0  0 
  7 13  1  0  0  0  0 
  5 14  1  0  0  0  0 
 14 15  2  0  0  0  0 
 14 16  1  0  0  0  0 
 16 17  1  0  0  0  0 
 17 18  1  0  0  0  0 
  4 19  1  6  0  0  0 
  1 20  1  0  0  0  0 
 21  8  1  0  0  0  0 
M  END
> <InChI>
InChI=1S/C15H21NO5/c1-9-6-7-12(17)10(2)14(9)16(13(18)8-20-4)11(3)15(19)21-5/h6-7,11,17H,8H2,1-5H3/t11-/m0/s1

> <InChIKey>
SKNRMURHENGAJU-NSHDSACASA-N

> <SMILES>
O(C(=O)[C@@H](N(C1=C(C(=CC=C1C)O)C)C(=O)COC)C)C

> <Synonyms>


> <PUBCHEM_CID>


> <Molecular_formula>
C15H21NO5

> <Major_Isotope_Mass>
295.14197277200003

> <ALogP>
1.5282999999999989

> <Lipinski_Violations>
0

> <Insecticide_Likeness_Violations>
0

> <Post_Em_Herbicide_Likeness_Violations>
0

> <Metabolite_ID>
BTM00007

> <Reaction>
Hydroxylation of benzene on carbon para to electron donating group

> <Reaction_ID>
BTMR1047

> <Enzyme(s)>
CYP2C9
CYP3A4

> <Biosystem>
HUMAN

> <Precursor_ID>
TEST0085_METALAXYL

> <Precursor_SMILES>
O(C(=O)[C@@H](N(C1=C(C=CC=C1C)C)C(=O)COC)C)C

> <Precursor_InChI>
InChI=1S/C15H21NO4/c1-10-7-6-8-11(2)14(10)16(13(17)9-19-4)12(3)15(18)20-5/h6-8,12H,9H2,1-5H3/t12-/m0/s1

> <Precursor_InChIKey>
ZQEIXNIJLIKNTD-LBPRGKRZSA-N

> <Precursor_ALogP>
1.795699

> <Precursor_Major_Isotope_Mass>
279.1470

$$$$
BTM00005
  CDK     07192412432D

 21 21  0  0  1  0  0  0  0  0999 V2000
   -3.8974    5.2504    0.0000 O   0  0  0  0  0  0  0  0  0  0  0  0
   -3.8976    3.7504    0.0000 C   0  0  0  0  0  0  0  0  0  0  0  0
   -5.1968    3.0006    0.0000 O   0  0  0  0  0  0  0  0  0  0  0  0
   -2.5987    3.0002    0.0000 C   0  0  1  0  0  0  0  0  0  0  0  0
   -2.5989    1.5002    0.0000 N   0  0  0  0  0  0  0  0  0  0  0  0
   -1.3000    0.7500    0.0000 C   0  0  0  0  0  0  0  0  0  0  0  0
    0.0000    1.5000    0.0000 C   0  0  0  0  0  0  0  0  0  0  0  0
    1.3000    0.7500    0.0000 C   0  0  0  0  0  0  0  0  0  0  0  0
    1.3000   -0.7500    0.0000 C   0  0  0  0  0  0  0  0  0  0  0  0
    0.0000   -1.5000    0.0000 C   0  0  0  0  0  0  0  0  0  0  0  0
   -1.3000   -0.7500    0.0000 C   0  0  0  0  0  0  0  0  0  0  0  0
   -2.5989   -1.5002    0.0000 C   0  0  0  0  0  0  0  0  0  0  0  0
    0.0000    3.0000    0.0000 C   0  0  0  0  0  0  0  0  0  0  0  0
   -3.8981    0.7504    0.0000 C   0  0  0  0  0  0  0  0  0  0  0  0
   -3.8983   -0.7496    0.0000 O   0  0  0  0  0  0  0  0  0  0  0  0
   -5.1970    1.5006    0.0000 C   0  0  0  0  0  0  0  0  0  0  0  0
   -6.4962    0.7508    0.0000 O   0  0  0  0  0  0  0  0  0  0  0  0
   -7.7951    1.5010    0.0000 C   0  0  0  0  0  0  0  0  0  0  0  0
   -1.2995    3.7500    0.0000 C   0  0  0  0  0  0  0  0  0  0  0  0
   -5.1963    6.0006    0.0000 C   0  0  0  0  0  0  0  0  0  0  0  0
    2.5989   -1.5002    0.0000 O   0  0  0  0  0  0  0  0  0  0  0  0
  1  2  1  0  0  0  0 
  2  3  2  0  0  0  0 
  4  2  1  0  0  0  0 
  4  5  1  0  0  0  0 
  5  6  1  0  0  0  0 
  6  7  2  0  0  0  0 
  7  8  1  0  0  0  0 
  8  9  2  0  0  0  0 
  9 10  1  0  0  0  0 
 10 11  2  0  0  0  0 
  6 11  1  0  0  0  0 
 11 12  1  0  0  0  0 
  7 13  1  0  0  0  0 
  5 14  1  0  0  0  0 
 14 15  2  0  0  0  0 
 14 16  1  0  0  0  0 
 16 17  1  0  0  0  0 
 17 18  1  0  0  0  0 
  4 19  1  6  0  0  0 
  1 20  1  0  0  0  0 
 21  9  1  0  0  0  0 
M  END
> <InChI>
InChI=1S/C15H21NO5/c1-9-6-12(17)7-10(2)14(9)16(13(18)8-20-4)11(3)15(19)21-5/h6-7,11,17H,8H2,1-5H3/t11-/m0/s1

> <InChIKey>
VTADHHFFFPZTLS-NSHDSACASA-N

> <SMILES>
O(C(=O)[C@@H](N(C1=C(C=C(C=C1C)O)C)C(=O)COC)C)C

> <Synonyms>


> <PUBCHEM_CID>


> <Molecular_formula>
C15H21NO5

> <Major_Isotope_Mass>
295.14197277200003

> <ALogP>
1.5282999999999989

> <Lipinski_Violations>
0

> <Insecticide_Likeness_Violations>
0

> <Post_Em_Herbicide_Likeness_Violations>
0

> <Metabolite_ID>
BTM00005

> <Reaction>
Hydroxylation of benzene on carbon para to electron donating group

> <Reaction_ID>
BTMR1047

> <Enzyme(s)>
CYP2C9
CYP3A4

> <Biosystem>
HUMAN

> <Precursor_ID>
TEST0085_METALAXYL

> <Precursor_SMILES>
O(C(=O)[C@@H](N(C1=C(C=CC=C1C)C)C(=O)COC)C)C

> <Precursor_InChI>
InChI=1S/C15H21NO4/c1-10-7-6-8-11(2)14(10)16(13(17)9-19-4)12(3)15(18)20-5/h6-8,12H,9H2,1-5H3/t12-/m0/s1

> <Precursor_InChIKey>
ZQEIXNIJLIKNTD-LBPRGKRZSA-N

> <Precursor_ALogP>
1.795699

> <Precursor_Major_Isotope_Mass>
279.1470

$$$$
BTM00008
  CDK     07192412432D

 19 19  0  0  1  0  0  0  0  0999 V2000
    5.9162   -0.4208    0.0000 O   0  0  0  0  0  0  0  0  0  0  0  0
    4.6170   -1.1706    0.0000 C   0  0  0  0  0  0  0  0  0  0  0  0
    4.6168   -2.6706    0.0000 O   0  0  0  0  0  0  0  0  0  0  0  0
    3.3181   -0.4204    0.0000 C   0  0  1  0  0  0  0  0  0  0  0  0
    2.0189   -1.1702    0.0000 N   0  0  0  0  0  0  0  0  0  0  0  0
    0.7200   -0.4200    0.0000 C   0  0  0  0  0  0  0  0  0  0  0  0
   -0.5800   -1.1700    0.0000 C   0  0  0  0  0  0  0  0  0  0  0  0
   -1.8800   -0.4200    0.0000 C   0  0  0  0  0  0  0  0  0  0  0  0
   -1.8800    1.0800    0.0000 C   0  0  0  0  0  0  0  0  0  0  0  0
   -0.5800    1.8300    0.0000 C   0  0  0  0  0  0  0  0  0  0  0  0
    0.7200    1.0800    0.0000 C   0  0  0  0  0  0  0  0  0  0  0  0
    2.0189    1.8302    0.0000 C   0  0  0  0  0  0  0  0  0  0  0  0
   -0.5800   -2.6700    0.0000 C   0  0  0  0  0  0  0  0  0  0  0  0
    2.0187   -2.6702    0.0000 C   0  0  0  0  0  0  0  0  0  0  0  0
    0.7195   -3.4200    0.0000 O   0  0  0  0  0  0  0  0  0  0  0  0
    3.3176   -3.4204    0.0000 C   0  0  0  0  0  0  0  0  0  0  0  0
    3.3174   -4.9204    0.0000 O   0  0  0  0  0  0  0  0  0  0  0  0
    3.3183    1.0796    0.0000 C   0  0  0  0  0  0  0  0  0  0  0  0
    7.2151   -1.1710    0.0000 C   0  0  0  0  0  0  0  0  0  0  0  0
  1  2  1  0  0  0  0 
  2  3  2  0  0  0  0 
  4  2  1  0  0  0  0 
  4  5  1  0  0  0  0 
  5  6  1  0  0  0  0 
  6  7  2  0  0  0  0 
  7  8  1  0  0  0  0 
  8  9  2  0  0  0  0 
  9 10  1  0  0  0  0 
 10 11  2  0  0  0  0 
  6 11  1  0  0  0  0 
 11 12  1  0  0  0  0 
  7 13  1  0  0  0  0 
  5 14  1  0  0  0  0 
 14 15  2  0  0  0  0 
 14 16  1  0  0  0  0 
 16 17  1  0  0  0  0 
  4 18  1  1  0  0  0 
  1 19  1  0  0  0  0 
M  END
> <InChI>
InChI=1S/C14H19NO4/c1-9-6-5-7-10(2)13(9)15(12(17)8-16)11(3)14(18)19-4/h5-7,11,16H,8H2,1-4H3/t11-/m0/s1

> <InChIKey>
HOOCPOQCHBHJLU-NSHDSACASA-N

> <SMILES>
O(C(=O)[C@@H](N(C1=C(C=CC=C1C)C)C(=O)CO)C)C

> <Synonyms>


> <PUBCHEM_CID>


> <Molecular_formula>
C14H19NO4

> <Major_Isotope_Mass>
265.131408088

> <ALogP>
1.3872

> <Lipinski_Violations>
0

> <Insecticide_Likeness_Violations>
0

> <Post_Em_Herbicide_Likeness_Violations>
0

> <Metabolite_ID>
BTM00008

> <Reaction>
O-Dealkylation of dialkylether

> <Reaction_ID>
BTMR1129

> <Enzyme(s)>
CYP2C9
CYP2C19
CYP3A4

> <Biosystem>
HUMAN

> <Precursor_ID>
TEST0085_METALAXYL

> <Precursor_SMILES>
O(C(=O)[C@@H](N(C1=C(C=CC=C1C)C)C(=O)COC)C)C

> <Precursor_InChI>
InChI=1S/C15H21NO4/c1-10-7-6-8-11(2)14(10)16(13(17)9-19-4)12(3)15(18)20-5/h6-8,12H,9H2,1-5H3/t12-/m0/s1

> <Precursor_InChIKey>
ZQEIXNIJLIKNTD-LBPRGKRZSA-N

> <Precursor_ALogP>
1.795699

> <Precursor_Major_Isotope_Mass>
279.1470

$$$$
BTM00009
  CDK     07192412432D

 20 20  0  0  0  0  0  0  0  0999 V2000
    3.3174   -4.9204    0.0000 O   0  0  0  0  0  0  0  0  0  0  0  0
    3.3176   -3.4204    0.0000 C   0  0  0  0  0  0  0  0  0  0  0  0
    4.6168   -2.6706    0.0000 O   0  0  0  0  0  0  0  0  0  0  0  0
    2.0187   -2.6702    0.0000 C   0  0  0  0  0  0  0  0  0  0  0  0
    2.0189   -1.1702    0.0000 N   0  0  0  0  0  0  0  0  0  0  0  0
    0.7200   -0.4200    0.0000 C   0  0  0  0  0  0  0  0  0  0  0  0
   -0.5800   -1.1700    0.0000 C   0  0  0  0  0  0  0  0  0  0  0  0
   -1.8800   -0.4200    0.0000 C   0  0  0  0  0  0  0  0  0  0  0  0
   -1.8800    1.0800    0.0000 C   0  0  0  0  0  0  0  0  0  0  0  0
   -0.5800    1.8300    0.0000 C   0  0  0  0  0  0  0  0  0  0  0  0
    0.7200    1.0800    0.0000 C   0  0  0  0  0  0  0  0  0  0  0  0
    2.0189    1.8302    0.0000 C   0  0  0  0  0  0  0  0  0  0  0  0
   -0.5800   -2.6700    0.0000 C   0  0  0  0  0  0  0  0  0  0  0  0
    3.3181   -0.4204    0.0000 C   0  0  0  0  0  0  0  0  0  0  0  0
    3.3183    1.0796    0.0000 O   0  0  0  0  0  0  0  0  0  0  0  0
    4.6170   -1.1706    0.0000 C   0  0  0  0  0  0  0  0  0  0  0  0
    5.9162   -0.4208    0.0000 O   0  0  0  0  0  0  0  0  0  0  0  0
    7.2151   -1.1710    0.0000 C   0  0  0  0  0  0  0  0  0  0  0  0
    0.7195   -3.4200    0.0000 C   0  0  0  0  0  0  0  0  0  0  0  0
    4.6163   -5.6706    0.0000 C   0  0  0  0  0  0  0  0  0  0  0  0
  1  2  1  0  0  0  0 
  2  3  2  0  0  0  0 
  4  2  1  0  0  0  0 
  4  5  1  0  0  0  0 
  5  6  1  0  0  0  0 
  6  7  2  0  0  0  0 
  7  8  1  0  0  0  0 
  8  9  2  0  0  0  0 
  9 10  1  0  0  0  0 
 10 11  2  0  0  0  0 
  6 11  1  0  0  0  0 
 11 12  1  0  0  0  0 
  7 13  1  0  0  0  0 
  5 14  1  0  0  0  0 
 14 15  2  0  0  0  0 
 14 16  1  0  0  0  0 
 16 17  1  0  0  0  0 
 17 18  1  0  0  0  0 
  4 19  2  0  0  0  0 
  1 20  1  0  0  0  0 
M  END
> <InChI>
InChI=1S/C15H19NO4/c1-10-7-6-8-11(2)14(10)16(13(17)9-19-4)12(3)15(18)20-5/h6-8H,3,9H2,1-2,4-5H3

> <InChIKey>
WMQZEMTWGLMFKI-UHFFFAOYSA-N

> <SMILES>
O(C(=O)C(N(C1=C(C=CC=C1C)C)C(=O)COC)=C)C

> <Synonyms>


> <PUBCHEM_CID>


> <Molecular_formula>
C15H19NO4

> <Major_Isotope_Mass>
277.131408088

> <ALogP>
2.162199999999999

> <Lipinski_Violations>
0

> <Insecticide_Likeness_Violations>
0

> <Post_Em_Herbicide_Likeness_Violations>
0

> <Metabolite_ID>
BTM00009

> <Reaction>
Terminal desaturation

> <Reaction_ID>
BTMR1190

> <Enzyme(s)>
CYP2C9
CYP3A4

> <Biosystem>
HUMAN

> <Precursor_ID>
TEST0085_METALAXYL

> <Precursor_SMILES>
O(C(=O)[C@@H](N(C1=C(C=CC=C1C)C)C(=O)COC)C)C

> <Precursor_InChI>
InChI=1S/C15H21NO4/c1-10-7-6-8-11(2)14(10)16(13(17)9-19-4)12(3)15(18)20-5/h6-8,12H,9H2,1-5H3/t12-/m0/s1

> <Precursor_InChIKey>
ZQEIXNIJLIKNTD-LBPRGKRZSA-N

> <Precursor_ALogP>
1.795699

> <Precursor_Major_Isotope_Mass>
279.1470

$$$$
