BTM00001
  CDK     07192412422D

 28 27  0  0  0  0  0  0  0  0999 V2000
   14.7655   -0.7837    0.0000 F   0  0  0  0  0  0  0  0  0  0  0  0
   13.8014    0.3653    0.0000 C   0  0  0  0  0  0  0  0  0  0  0  0
   12.8372   -0.7837    0.0000 F   0  0  0  0  0  0  0  0  0  0  0  0
   12.5023    1.1153    0.0000 C   0  0  0  0  0  0  0  0  0  0  0  0
   11.2033    0.3653    0.0000 C   0  0  0  0  0  0  0  0  0  0  0  0
    9.9042    1.1153    0.0000 C   0  0  0  0  0  0  0  0  0  0  0  0
    8.6052    0.3653    0.0000 C   0  0  0  0  0  0  0  0  0  0  0  0
    7.3062    1.1153    0.0000 C   0  0  0  0  0  0  0  0  0  0  0  0
    6.0071    0.3653    0.0000 C   0  0  0  0  0  0  0  0  0  0  0  0
    4.7081    1.1153    0.0000 C   0  0  0  0  0  0  0  0  0  0  0  0
    3.4091    0.3653    0.0000 C   0  0  0  0  0  0  0  0  0  0  0  0
   15.1004    1.1153    0.0000 C   0  0  0  0  0  0  0  0  0  0  0  0
   15.6134   -0.2942    0.0000 F   0  0  0  0  0  0  0  0  0  0  0  0
   16.5776    1.3758    0.0000 F   0  0  0  0  0  0  0  0  0  0  0  0
   15.1004    3.0953    0.0000 C   0  0  0  0  0  0  0  0  0  0  0  0
   14.5874    4.5049    0.0000 F   0  0  0  0  0  0  0  0  0  0  0  0
   13.6232    2.8349    0.0000 F   0  0  0  0  0  0  0  0  0  0  0  0
   16.8151    4.0853    0.0000 C   0  0  0  0  0  0  0  0  0  0  0  0
   17.3282    2.6758    0.0000 F   0  0  0  0  0  0  0  0  0  0  0  0
   18.2923    4.3458    0.0000 F   0  0  0  0  0  0  0  0  0  0  0  0
   16.8151    5.5853    0.0000 C   0  0  0  0  0  0  0  0  0  0  0  0
   16.3021    6.9949    0.0000 F   0  0  0  0  0  0  0  0  0  0  0  0
   15.3379    5.3249    0.0000 F   0  0  0  0  0  0  0  0  0  0  0  0
   18.1142    6.3353    0.0000 C   0  0  0  0  0  0  0  0  0  0  0  0
   19.4132    5.5853    0.0000 F   0  0  0  0  0  0  0  0  0  0  0  0
   17.1500    7.4844    0.0000 F   0  0  0  0  0  0  0  0  0  0  0  0
   19.0783    7.4844    0.0000 F   0  0  0  0  0  0  0  0  0  0  0  0
    4.7081    2.6153    0.0000 O   0  0  0  0  0  0  0  0  0  0  0  0
  1  2  1  0  0  0  0 
  2  3  1  0  0  0  0 
  2  4  1  0  0  0  0 
  4  5  1  0  0  0  0 
  5  6  1  0  0  0  0 
  6  7  1  0  0  0  0 
  7  8  1  0  0  0  0 
  8  9  1  0  0  0  0 
  9 10  1  0  0  0  0 
 10 11  1  0  0  0  0 
  2 12  1  0  0  0  0 
 12 13  1  0  0  0  0 
 12 14  1  0  0  0  0 
 12 15  1  0  0  0  0 
 15 16  1  0  0  0  0 
 15 17  1  0  0  0  0 
 15 18  1  0  0  0  0 
 18 19  1  0  0  0  0 
 18 20  1  0  0  0  0 
 18 21  1  0  0  0  0 
 21 22  1  0  0  0  0 
 21 23  1  0  0  0  0 
 21 24  1  0  0  0  0 
 24 25  1  0  0  0  0 
 24 26  1  0  0  0  0 
 24 27  1  0  0  0  0 
 10 28  1  0  0  0  0 
M  END
> <InChI>
InChI=1S/C14H17F13O/c1-8(28)6-4-2-3-5-7-9(15,16)10(17,18)11(19,20)12(21,22)13(23,24)14(25,26)27/h8,28H,2-7H2,1H3

> <InChIKey>
QIHKYMRGSCOBRI-UHFFFAOYSA-N

> <SMILES>
FC(F)(CCCCCCC(C)O)C(F)(F)C(F)(F)C(F)(F)C(F)(F)C(F)(F)F

> <Synonyms>


> <PUBCHEM_CID>


> <Molecular_formula>
C14H17F13O

> <Major_Isotope_Mass>
448.107182024

> <ALogP>
1.3686999999999991

> <Lipinski_Violations>
1

> <Insecticide_Likeness_Violations>
0

> <Post_Em_Herbicide_Likeness_Violations>
0

> <Metabolite_ID>
BTM00001

> <Reaction>
Hydroxylation of penultimate aliphatic secondary carbon

> <Reaction_ID>
BTMR1074

> <Enzyme(s)>
CYP2B6

> <Biosystem>
HUMAN

> <Precursor_ID>
TEST0074_Perfluorohexyloctane

> <Precursor_SMILES>
FC(F)(CCCCCCCC)C(F)(F)C(F)(F)C(F)(F)C(F)(F)C(F)(F)F

> <Precursor_InChI>
InChI=1S/C14H17F13/c1-2-3-4-5-6-7-8-9(15,16)10(17,18)11(19,20)12(21,22)13(23,24)14(25,26)27/h2-8H2,1H3

> <Precursor_InChIKey>
WRYIIOKOQSICTB-UHFFFAOYSA-N

> <Precursor_ALogP>
1.591399

> <Precursor_Major_Isotope_Mass>
432.1122

$$$$
BTM00002
  CDK     07192412422D

 28 27  0  0  0  0  0  0  0  0999 V2000
    4.6998   -0.4087    0.0000 F   0  0  0  0  0  0  0  0  0  0  0  0
    3.7357    0.7403    0.0000 C   0  0  0  0  0  0  0  0  0  0  0  0
    2.7715   -0.4087    0.0000 F   0  0  0  0  0  0  0  0  0  0  0  0
    5.0347    1.4903    0.0000 C   0  0  0  0  0  0  0  0  0  0  0  0
    6.3337    0.7403    0.0000 C   0  0  0  0  0  0  0  0  0  0  0  0
    7.6328    1.4903    0.0000 C   0  0  0  0  0  0  0  0  0  0  0  0
    8.9318    0.7403    0.0000 C   0  0  0  0  0  0  0  0  0  0  0  0
   10.2308    1.4903    0.0000 C   0  0  0  0  0  0  0  0  0  0  0  0
   11.5299    0.7403    0.0000 C   0  0  0  0  0  0  0  0  0  0  0  0
   12.8289    1.4903    0.0000 C   0  0  0  0  0  0  0  0  0  0  0  0
   14.1280    0.7403    0.0000 C   0  0  0  0  0  0  0  0  0  0  0  0
    2.4366    1.4903    0.0000 C   0  0  0  0  0  0  0  0  0  0  0  0
    0.9594    1.7508    0.0000 F   0  0  0  0  0  0  0  0  0  0  0  0
    1.9236    0.0808    0.0000 F   0  0  0  0  0  0  0  0  0  0  0  0
    2.4366    3.4703    0.0000 C   0  0  0  0  0  0  0  0  0  0  0  0
    3.9138    3.2099    0.0000 F   0  0  0  0  0  0  0  0  0  0  0  0
    2.9496    4.8799    0.0000 F   0  0  0  0  0  0  0  0  0  0  0  0
    0.7219    4.4603    0.0000 C   0  0  0  0  0  0  0  0  0  0  0  0
   -0.7553    4.7208    0.0000 F   0  0  0  0  0  0  0  0  0  0  0  0
    0.2089    3.0508    0.0000 F   0  0  0  0  0  0  0  0  0  0  0  0
    0.7219    5.9603    0.0000 C   0  0  0  0  0  0  0  0  0  0  0  0
    2.1991    5.6999    0.0000 F   0  0  0  0  0  0  0  0  0  0  0  0
    1.2349    7.3699    0.0000 F   0  0  0  0  0  0  0  0  0  0  0  0
   -0.5771    6.7103    0.0000 C   0  0  0  0  0  0  0  0  0  0  0  0
   -1.8762    5.9603    0.0000 F   0  0  0  0  0  0  0  0  0  0  0  0
   -1.5413    7.8594    0.0000 F   0  0  0  0  0  0  0  0  0  0  0  0
    0.3870    7.8594    0.0000 F   0  0  0  0  0  0  0  0  0  0  0  0
   15.4270    1.4903    0.0000 O   0  0  0  0  0  0  0  0  0  0  0  0
  1  2  1  0  0  0  0 
  2  3  1  0  0  0  0 
  2  4  1  0  0  0  0 
  4  5  1  0  0  0  0 
  5  6  1  0  0  0  0 
  6  7  1  0  0  0  0 
  7  8  1  0  0  0  0 
  8  9  1  0  0  0  0 
  9 10  1  0  0  0  0 
 10 11  1  0  0  0  0 
  2 12  1  0  0  0  0 
 12 13  1  0  0  0  0 
 12 14  1  0  0  0  0 
 12 15  1  0  0  0  0 
 15 16  1  0  0  0  0 
 15 17  1  0  0  0  0 
 15 18  1  0  0  0  0 
 18 19  1  0  0  0  0 
 18 20  1  0  0  0  0 
 18 21  1  0  0  0  0 
 21 22  1  0  0  0  0 
 21 23  1  0  0  0  0 
 21 24  1  0  0  0  0 
 24 25  1  0  0  0  0 
 24 26  1  0  0  0  0 
 24 27  1  0  0  0  0 
 28 11  1  0  0  0  0 
M  END
> <InChI>
InChI=1S/C14H17F13O/c15-9(16,7-5-3-1-2-4-6-8-28)10(17,18)11(19,20)12(21,22)13(23,24)14(25,26)27/h28H,1-8H2

> <InChIKey>
WHZAGCYPHBLMCU-UHFFFAOYSA-N

> <SMILES>
FC(F)(CCCCCCCCO)C(F)(F)C(F)(F)C(F)(F)C(F)(F)C(F)(F)F

> <Synonyms>


> <PUBCHEM_CID>


> <Molecular_formula>
C14H17F13O

> <Major_Isotope_Mass>
448.107182024

> <ALogP>
1.0913999999999997

> <Lipinski_Violations>
1

> <Insecticide_Likeness_Violations>
1

> <Post_Em_Herbicide_Likeness_Violations>
1

> <Metabolite_ID>
BTM00002

> <Reaction>
Hydroxylation of terminal methyl

> <Reaction_ID>
BTMR1061

> <Enzyme(s)>
CYP2B6

> <Biosystem>
HUMAN

> <Precursor_ID>
TEST0074_Perfluorohexyloctane

> <Precursor_SMILES>
FC(F)(CCCCCCCC)C(F)(F)C(F)(F)C(F)(F)C(F)(F)C(F)(F)F

> <Precursor_InChI>
InChI=1S/C14H17F13/c1-2-3-4-5-6-7-8-9(15,16)10(17,18)11(19,20)12(21,22)13(23,24)14(25,26)27/h2-8H2,1H3

> <Precursor_InChIKey>
WRYIIOKOQSICTB-UHFFFAOYSA-N

> <Precursor_ALogP>
1.591399

> <Precursor_Major_Isotope_Mass>
432.1122

$$$$
