BTM00001
  CDK     07192412382D

 27 29  0  0  0  0  0  0  0  0999 V2000
  -10.3338   -0.6959    0.0000 O   0  0  0  0  0  0  0  0  0  0  0  0
   -9.0349   -1.4461    0.0000 C   0  0  0  0  0  0  0  0  0  0  0  0
   -9.0352   -2.9461    0.0000 O   0  0  0  0  0  0  0  0  0  0  0  0
   -7.7358   -0.6963    0.0000 C   0  0  0  0  0  0  0  0  0  0  0  0
   -6.4899   -1.4365    0.0000 C   0  0  0  0  0  0  0  0  0  0  0  0
   -5.1798   -0.7478    0.0000 C   0  0  0  0  0  0  0  0  0  0  0  0
   -5.1981    0.7504    0.0000 C   0  0  0  0  0  0  0  0  0  0  0  0
   -3.8989    1.5002    0.0000 C   0  0  0  0  0  0  0  0  0  0  0  0
   -2.6000    0.7500    0.0000 C   0  0  0  0  0  0  0  0  0  0  0  0
   -1.3000    1.5000    0.0000 C   0  0  0  0  0  0  0  0  0  0  0  0
    0.0000    0.7500    0.0000 C   0  0  0  0  0  0  0  0  0  0  0  0
    1.3000    1.5000    0.0000 C   0  0  0  0  0  0  0  0  0  0  0  0
    2.6000    0.7500    0.0000 C   0  0  0  0  0  0  0  0  0  0  0  0
    2.6000   -0.7500    0.0000 C   0  0  0  0  0  0  0  0  0  0  0  0
    1.3000   -1.5000    0.0000 C   0  0  0  0  0  0  0  0  0  0  0  0
    0.0000   -0.7500    0.0000 C   0  0  0  0  0  0  0  0  0  0  0  0
   -1.3000   -1.5000    0.0000 C   0  0  0  0  0  0  0  0  0  0  0  0
   -2.6000   -0.7500    0.0000 C   0  0  0  0  0  0  0  0  0  0  0  0
   -3.8989   -1.5002    0.0000 C   0  0  0  0  0  0  0  0  0  0  0  0
    0.3359   -2.6492    0.0000 C   0  0  0  0  0  0  0  0  0  0  0  0
    2.2641   -2.6492    0.0000 C   0  0  0  0  0  0  0  0  0  0  0  0
    2.2641    2.6492    0.0000 C   0  0  0  0  0  0  0  0  0  0  0  0
    0.3359    2.6492    0.0000 C   0  0  0  0  0  0  0  0  0  0  0  0
   -3.8987    3.0002    0.0000 C   0  0  0  0  0  0  0  0  0  0  0  0
   -6.4439    1.4906    0.0000 C   0  0  0  0  0  0  0  0  0  0  0  0
   -7.7540    0.8019    0.0000 C   0  0  0  0  0  0  0  0  0  0  0  0
   -3.8987   -3.0002    0.0000 O   0  0  0  0  0  0  0  0  0  0  0  0
  1  2  1  0  0  0  0 
  2  3  2  0  0  0  0 
  2  4  1  0  0  0  0 
  4  5  2  0  0  0  0 
  5  6  1  0  0  0  0 
  6  7  2  0  0  0  0 
  7  8  1  0  0  0  0 
  8  9  1  0  0  0  0 
  9 10  2  0  0  0  0 
 10 11  1  0  0  0  0 
 11 12  1  0  0  0  0 
 12 13  1  0  0  0  0 
 13 14  1  0  0  0  0 
 14 15  1  0  0  0  0 
 15 16  1  0  0  0  0 
 11 16  2  0  0  0  0 
 16 17  1  0  0  0  0 
 17 18  2  0  0  0  0 
  9 18  1  0  0  0  0 
 18 19  1  0  0  0  0 
 15 20  1  0  0  0  0 
 15 21  1  0  0  0  0 
 12 22  1  0  0  0  0 
 12 23  1  0  0  0  0 
  8 24  2  0  0  0  0 
  7 25  1  0  0  0  0 
 25 26  2  0  0  0  0 
  4 26  1  0  0  0  0 
 27 19  1  0  0  0  0 
M  END
> <InChI>
InChI=1S/C24H28O3/c1-15(16-6-8-17(9-7-16)22(26)27)19-13-21-20(12-18(19)14-25)23(2,3)10-11-24(21,4)5/h6-9,12-13,25H,1,10-11,14H2,2-5H3,(H,26,27)

> <InChIKey>
GAIKXENNAPPIPY-UHFFFAOYSA-N

> <SMILES>
OC(=O)C1=CC=C(C(C2=CC=3C(CCC(C3C=C2CO)(C)C)(C)C)=C)C=C1

> <Synonyms>


> <PUBCHEM_CID>


> <Molecular_formula>
C24H28O3

> <Major_Isotope_Mass>
364.20384475599997

> <ALogP>
4.511100000000003

> <Lipinski_Violations>
1

> <Insecticide_Likeness_Violations>
0

> <Post_Em_Herbicide_Likeness_Violations>
0

> <Metabolite_ID>
BTM00001

> <Reaction>
Aliphatic hydroxylation of methyl carbon adjacent to aromatic ring

> <Reaction_ID>
BTMR1058

> <Enzyme(s)>
CYP1A2
CYP2B6
CYP2C8
CYP2C9
CYP2C19
CYP2D6
CYP3A4

> <Biosystem>
HUMAN

> <Precursor_ID>
TEST0013_Bexarotene

> <Precursor_SMILES>
OC(=O)C1=CC=C(C(C2=CC=3C(CCC(C3C=C2C)(C)C)(C)C)=C)C=C1

> <Precursor_InChI>
InChI=1S/C24H28O2/c1-15-13-20-21(24(5,6)12-11-23(20,3)4)14-19(15)16(2)17-7-9-18(10-8-17)22(25)26/h7-10,13-14H,2,11-12H2,1,3-6H3,(H,25,26)

> <Precursor_InChIKey>
NAVMQTYZDKMPEU-UHFFFAOYSA-N

> <Precursor_ALogP>
5.601800

> <Precursor_Major_Isotope_Mass>
348.2089

$$$$
BTM00002
  CDK     07192412382D

 27 29  0  0  0  0  0  0  0  0999 V2000
  -10.3945   -0.7488    0.0000 O   0  0  0  0  0  0  0  0  0  0  0  0
   -9.0956   -1.4990    0.0000 C   0  0  0  0  0  0  0  0  0  0  0  0
   -9.0958   -2.9990    0.0000 O   0  0  0  0  0  0  0  0  0  0  0  0
   -7.7964   -0.7492    0.0000 C   0  0  0  0  0  0  0  0  0  0  0  0
   -6.4970   -1.5002    0.0000 C   0  0  0  0  0  0  0  0  0  0  0  0
   -5.1978   -0.7504    0.0000 C   0  0  0  0  0  0  0  0  0  0  0  0
   -5.1981    0.7504    0.0000 C   0  0  0  0  0  0  0  0  0  0  0  0
   -3.8989    1.5002    0.0000 C   0  0  0  0  0  0  0  0  0  0  0  0
   -2.6000    0.7500    0.0000 C   0  0  0  0  0  0  0  0  0  0  0  0
   -1.3000    1.5000    0.0000 C   0  0  0  0  0  0  0  0  0  0  0  0
    0.0000    0.7500    0.0000 C   0  0  0  0  0  0  0  0  0  0  0  0
    1.3000    1.5000    0.0000 C   0  0  0  0  0  0  0  0  0  0  0  0
    2.6000    0.7500    0.0000 C   0  0  0  0  0  0  0  0  0  0  0  0
    2.6000   -0.7500    0.0000 C   0  0  0  0  0  0  0  0  0  0  0  0
    1.3000   -1.5000    0.0000 C   0  0  0  0  0  0  0  0  0  0  0  0
    0.0000   -0.7500    0.0000 C   0  0  0  0  0  0  0  0  0  0  0  0
   -1.3000   -1.5000    0.0000 C   0  0  0  0  0  0  0  0  0  0  0  0
   -2.6000   -0.7500    0.0000 C   0  0  0  0  0  0  0  0  0  0  0  0
   -3.8989   -1.5002    0.0000 C   0  0  0  0  0  0  0  0  0  0  0  0
    0.3359   -2.6492    0.0000 C   0  0  0  0  0  0  0  0  0  0  0  0
    2.2641   -2.6492    0.0000 C   0  0  0  0  0  0  0  0  0  0  0  0
    2.2641    2.6492    0.0000 C   0  0  0  0  0  0  0  0  0  0  0  0
    0.3359    2.6492    0.0000 C   0  0  0  0  0  0  0  0  0  0  0  0
   -3.8987    3.0002    0.0000 C   0  0  0  0  0  0  0  0  0  0  0  0
   -6.4975    1.5015    0.0000 C   0  0  0  0  0  0  0  0  0  0  0  0
   -7.7966    0.7517    0.0000 C   0  0  0  0  0  0  0  0  0  0  0  0
   -6.4975   -3.0002    0.0000 O   0  0  0  0  0  0  0  0  0  0  0  0
  1  2  1  0  0  0  0 
  2  3  2  0  0  0  0 
  2  4  1  0  0  0  0 
  4  5  2  0  0  0  0 
  5  6  1  0  0  0  0 
  6  7  2  0  0  0  0 
  7  8  1  0  0  0  0 
  8  9  1  0  0  0  0 
  9 10  2  0  0  0  0 
 10 11  1  0  0  0  0 
 11 12  1  0  0  0  0 
 12 13  1  0  0  0  0 
 13 14  1  0  0  0  0 
 14 15  1  0  0  0  0 
 15 16  1  0  0  0  0 
 11 16  2  0  0  0  0 
 16 17  1  0  0  0  0 
 17 18  2  0  0  0  0 
  9 18  1  0  0  0  0 
 18 19  1  0  0  0  0 
 15 20  1  0  0  0  0 
 15 21  1  0  0  0  0 
 12 22  1  0  0  0  0 
 12 23  1  0  0  0  0 
  8 24  2  0  0  0  0 
  7 25  1  0  0  0  0 
 25 26  2  0  0  0  0 
  4 26  1  0  0  0  0 
 27  5  1  0  0  0  0 
M  END
> <InChI>
InChI=1S/C24H28O3/c1-14-11-19-20(24(5,6)10-9-23(19,3)4)13-18(14)15(2)16-7-8-17(22(26)27)21(25)12-16/h7-8,11-13,25H,2,9-10H2,1,3-6H3,(H,26,27)

> <InChIKey>
QOTRMSXBZLWZNN-UHFFFAOYSA-N

> <SMILES>
OC(=O)C1=C(C=C(C(C2=CC=3C(CCC(C3C=C2C)(C)C)(C)C)=C)C=C1)O

> <Synonyms>


> <PUBCHEM_CID>


> <Molecular_formula>
C24H28O3

> <Major_Isotope_Mass>
364.20384475599997

> <ALogP>
5.3344

> <Lipinski_Violations>
1

> <Insecticide_Likeness_Violations>
0

> <Post_Em_Herbicide_Likeness_Violations>
0

> <Metabolite_ID>
BTM00002

> <Reaction>
Hydroxylation of benzene on carbon ortho to electron donating group

> <Reaction_ID>
BTMR1045

> <Enzyme(s)>
CYP1A2
CYP2C8
CYP2C9
CYP2C19
CYP2D6
CYP3A4

> <Biosystem>
HUMAN

> <Precursor_ID>
TEST0013_Bexarotene

> <Precursor_SMILES>
OC(=O)C1=CC=C(C(C2=CC=3C(CCC(C3C=C2C)(C)C)(C)C)=C)C=C1

> <Precursor_InChI>
InChI=1S/C24H28O2/c1-15-13-20-21(24(5,6)12-11-23(20,3)4)14-19(15)16(2)17-7-9-18(10-8-17)22(25)26/h7-10,13-14H,2,11-12H2,1,3-6H3,(H,25,26)

> <Precursor_InChIKey>
NAVMQTYZDKMPEU-UHFFFAOYSA-N

> <Precursor_ALogP>
5.601800

> <Precursor_Major_Isotope_Mass>
348.2089

$$$$
BTM00003
  CDK     07192412382D

 27 29  0  0  0  0  0  0  0  0999 V2000
  -10.3945   -0.7488    0.0000 O   0  0  0  0  0  0  0  0  0  0  0  0
   -9.0956   -1.4990    0.0000 C   0  0  0  0  0  0  0  0  0  0  0  0
   -9.0958   -2.9990    0.0000 O   0  0  0  0  0  0  0  0  0  0  0  0
   -7.7964   -0.7492    0.0000 C   0  0  0  0  0  0  0  0  0  0  0  0
   -6.4970   -1.5002    0.0000 C   0  0  0  0  0  0  0  0  0  0  0  0
   -5.1978   -0.7504    0.0000 C   0  0  0  0  0  0  0  0  0  0  0  0
   -5.1981    0.7504    0.0000 C   0  0  0  0  0  0  0  0  0  0  0  0
   -3.8989    1.5002    0.0000 C   0  0  0  0  0  0  0  0  0  0  0  0
   -2.6000    0.7500    0.0000 C   0  0  0  0  0  0  0  0  0  0  0  0
   -1.3000    1.5000    0.0000 C   0  0  0  0  0  0  0  0  0  0  0  0
    0.0000    0.7500    0.0000 C   0  0  0  0  0  0  0  0  0  0  0  0
    1.3000    1.5000    0.0000 C   0  0  0  0  0  0  0  0  0  0  0  0
    2.6000    0.7500    0.0000 C   0  0  0  0  0  0  0  0  0  0  0  0
    2.6000   -0.7500    0.0000 C   0  0  0  0  0  0  0  0  0  0  0  0
    1.3000   -1.5000    0.0000 C   0  0  0  0  0  0  0  0  0  0  0  0
    0.0000   -0.7500    0.0000 C   0  0  0  0  0  0  0  0  0  0  0  0
   -1.3000   -1.5000    0.0000 C   0  0  0  0  0  0  0  0  0  0  0  0
   -2.6000   -0.7500    0.0000 C   0  0  0  0  0  0  0  0  0  0  0  0
   -3.8989   -1.5002    0.0000 C   0  0  0  0  0  0  0  0  0  0  0  0
    0.3359   -2.6492    0.0000 C   0  0  0  0  0  0  0  0  0  0  0  0
    2.2641   -2.6492    0.0000 C   0  0  0  0  0  0  0  0  0  0  0  0
    2.2641    2.6492    0.0000 C   0  0  0  0  0  0  0  0  0  0  0  0
    0.3359    2.6492    0.0000 C   0  0  0  0  0  0  0  0  0  0  0  0
   -3.8987    3.0002    0.0000 C   0  0  0  0  0  0  0  0  0  0  0  0
   -6.4975    1.5015    0.0000 C   0  0  0  0  0  0  0  0  0  0  0  0
   -7.7966    0.7517    0.0000 C   0  0  0  0  0  0  0  0  0  0  0  0
   -6.4970    3.0015    0.0000 O   0  0  0  0  0  0  0  0  0  0  0  0
  1  2  1  0  0  0  0 
  2  3  2  0  0  0  0 
  2  4  1  0  0  0  0 
  4  5  2  0  0  0  0 
  5  6  1  0  0  0  0 
  6  7  2  0  0  0  0 
  7  8  1  0  0  0  0 
  8  9  1  0  0  0  0 
  9 10  2  0  0  0  0 
 10 11  1  0  0  0  0 
 11 12  1  0  0  0  0 
 12 13  1  0  0  0  0 
 13 14  1  0  0  0  0 
 14 15  1  0  0  0  0 
 15 16  1  0  0  0  0 
 11 16  2  0  0  0  0 
 16 17  1  0  0  0  0 
 17 18  2  0  0  0  0 
  9 18  1  0  0  0  0 
 18 19  1  0  0  0  0 
 15 20  1  0  0  0  0 
 15 21  1  0  0  0  0 
 12 22  1  0  0  0  0 
 12 23  1  0  0  0  0 
  8 24  2  0  0  0  0 
  7 25  1  0  0  0  0 
 25 26  2  0  0  0  0 
  4 26  1  0  0  0  0 
 27 25  1  0  0  0  0 
M  END
> <InChI>
InChI=1S/C24H28O3/c1-14-11-19-20(24(5,6)10-9-23(19,3)4)13-18(14)15(2)17-8-7-16(22(26)27)12-21(17)25/h7-8,11-13,25H,2,9-10H2,1,3-6H3,(H,26,27)

> <InChIKey>
CZSDLLZEVSEBJA-UHFFFAOYSA-N

> <SMILES>
OC(=O)C1=CC=C(C(C2=CC=3C(CCC(C3C=C2C)(C)C)(C)C)=C)C(=C1)O

> <Synonyms>


> <PUBCHEM_CID>


> <Molecular_formula>
C24H28O3

> <Major_Isotope_Mass>
364.20384475599997

> <ALogP>
5.3344

> <Lipinski_Violations>
1

> <Insecticide_Likeness_Violations>
0

> <Post_Em_Herbicide_Likeness_Violations>
0

> <Metabolite_ID>
BTM00003

> <Reaction>
Hydroxylation of benzene on carbon ortho to electron donating group

> <Reaction_ID>
BTMR1045

> <Enzyme(s)>
CYP1A2
CYP2C8
CYP2C9
CYP2C19
CYP2D6
CYP3A4

> <Biosystem>
HUMAN

> <Precursor_ID>
TEST0013_Bexarotene

> <Precursor_SMILES>
OC(=O)C1=CC=C(C(C2=CC=3C(CCC(C3C=C2C)(C)C)(C)C)=C)C=C1

> <Precursor_InChI>
InChI=1S/C24H28O2/c1-15-13-20-21(24(5,6)12-11-23(20,3)4)14-19(15)16(2)17-7-9-18(10-8-17)22(25)26/h7-10,13-14H,2,11-12H2,1,3-6H3,(H,25,26)

> <Precursor_InChIKey>
NAVMQTYZDKMPEU-UHFFFAOYSA-N

> <Precursor_ALogP>
5.601800

> <Precursor_Major_Isotope_Mass>
348.2089

$$$$
BTM00004
  CDK     07192412382D

 27 30  0  0  0  0  0  0  0  0999 V2000
   -9.1942   -2.7649    0.0000 O   0  0  0  0  0  0  0  0  0  0  0  0
   -7.7170   -3.0254    0.0000 C   0  0  0  0  0  0  0  0  0  0  0  0
   -7.2041   -4.4350    0.0000 O   0  0  0  0  0  0  0  0  0  0  0  0
   -6.7528   -1.8764    0.0000 C   0  0  0  0  0  0  0  0  0  0  0  0
   -5.3288   -2.1457    0.0000 C   0  0  0  0  0  0  0  0  0  0  0  0
   -4.3335   -1.0504    0.0000 C   0  0  0  0  0  0  0  0  0  0  0  0
   -4.8632    0.3512    0.0000 C   0  0  0  0  0  0  0  0  0  0  0  0
   -3.8989    1.5002    0.0000 C   0  0  0  0  0  0  0  0  0  0  0  0
   -2.6000    0.7500    0.0000 C   0  0  0  0  0  0  0  0  0  0  0  0
   -2.6000   -0.7508    0.0000 C   0  0  0  0  0  0  0  0  0  0  0  0
   -1.3007   -1.5021    0.0000 C   0  0  0  0  0  0  0  0  0  0  0  0
   -1.3007   -3.0029    0.0000 C   0  0  0  0  0  0  0  0  0  0  0  0
   -0.0014   -3.7542    0.0000 C   0  0  0  0  0  0  0  0  0  0  0  0
    1.2978   -3.0046    0.0000 C   0  0  0  0  0  0  0  0  0  0  0  0
    1.2978   -1.5037    0.0000 C   0  0  0  0  0  0  0  0  0  0  0  0
   -0.0014   -0.7525    0.0000 C   0  0  0  0  0  0  0  0  0  0  0  0
   -0.0014    0.7483    0.0000 C   0  0  0  0  0  0  0  0  0  0  0  0
   -1.3007    1.4996    0.0000 C   0  0  0  0  0  0  0  0  0  0  0  0
   -1.3000    2.9996    0.0000 C   0  0  0  0  0  0  0  0  0  0  0  0
    1.8115   -0.0944    0.0000 C   0  0  0  0  0  0  0  0  0  0  0  0
    2.7750   -1.7645    0.0000 C   0  0  0  0  0  0  0  0  0  0  0  0
   -1.8144   -4.4122    0.0000 C   0  0  0  0  0  0  0  0  0  0  0  0
   -2.7779   -2.7421    0.0000 C   0  0  0  0  0  0  0  0  0  0  0  0
   -4.8632    2.6492    0.0000 C   0  0  0  0  0  0  0  0  0  0  0  0
   -6.2871    0.6205    0.0000 C   0  0  0  0  0  0  0  0  0  0  0  0
   -7.2825   -0.4748    0.0000 C   0  0  0  0  0  0  0  0  0  0  0  0
   -3.3852    2.9104    0.0000 O   0  0  0  0  0  0  0  0  0  0  0  0
  1  2  1  0  0  0  0 
  2  3  2  0  0  0  0 
  2  4  1  0  0  0  0 
  4  5  2  0  0  0  0 
  5  6  1  0  0  0  0 
  6  7  2  0  0  0  0 
  7  8  1  0  0  0  0 
  8  9  1  0  0  0  0 
  9 10  2  0  0  0  0 
 10 11  1  0  0  0  0 
 11 12  1  0  0  0  0 
 12 13  1  0  0  0  0 
 13 14  1  0  0  0  0 
 14 15  1  0  0  0  0 
 15 16  1  0  0  0  0 
 11 16  2  0  0  0  0 
 16 17  1  0  0  0  0 
 17 18  2  0  0  0  0 
  9 18  1  0  0  0  0 
 18 19  1  0  0  0  0 
 15 20  1  0  0  0  0 
 15 21  1  0  0  0  0 
 12 22  1  0  0  0  0 
 12 23  1  0  0  0  0 
  8 24  1  0  0  0  0 
  7 25  1  0  0  0  0 
 25 26  2  0  0  0  0 
  4 26  1  0  0  0  0 
  8 27  1  0  0  0  0 
 27 24  1  0  0  0  0 
M  END
> <InChI>
InChI=1S/C24H28O3/c1-15-12-19-20(23(4,5)11-10-22(19,2)3)13-18(15)24(14-27-24)17-8-6-16(7-9-17)21(25)26/h6-9,12-13H,10-11,14H2,1-5H3,(H,25,26)

> <InChIKey>
DAUWSBRWCVRVRP-UHFFFAOYSA-N

> <SMILES>
OC(=O)C1=CC=C(C2(C3=CC=4C(CCC(C4C=C3C)(C)C)(C)C)CO2)C=C1

> <Synonyms>


> <PUBCHEM_CID>


> <Molecular_formula>
C24H28O3

> <Major_Isotope_Mass>
364.20384475599997

> <ALogP>
4.662500000000001

> <Lipinski_Violations>
1

> <Insecticide_Likeness_Violations>
0

> <Post_Em_Herbicide_Likeness_Violations>
0

> <Metabolite_ID>
BTM00004

> <Reaction>
Epoxidation of alkene

> <Reaction_ID>
BTMR0109

> <Enzyme(s)>
CYP1A2
CYP2B6
CYP2B6
CYP2C8
CYP2C9
CYP2C19
CYP2D6
CYP3A4

> <Biosystem>
HUMAN

> <Precursor_ID>
TEST0013_Bexarotene

> <Precursor_SMILES>
OC(=O)C1=CC=C(C(C2=CC=3C(CCC(C3C=C2C)(C)C)(C)C)=C)C=C1

> <Precursor_InChI>
InChI=1S/C24H28O2/c1-15-13-20-21(24(5,6)12-11-23(20,3)4)14-19(15)16(2)17-7-9-18(10-8-17)22(25)26/h7-10,13-14H,2,11-12H2,1,3-6H3,(H,25,26)

> <Precursor_InChIKey>
NAVMQTYZDKMPEU-UHFFFAOYSA-N

> <Precursor_ALogP>
5.601800

> <Precursor_Major_Isotope_Mass>
348.2089

$$$$
BTM00005
  CDK     07192412382D

 27 29  0  0  0  0  0  0  0  0999 V2000
  -10.3338   -0.6959    0.0000 O   0  0  0  0  0  0  0  0  0  0  0  0
   -9.0349   -1.4461    0.0000 C   0  0  0  0  0  0  0  0  0  0  0  0
   -9.0352   -2.9461    0.0000 O   0  0  0  0  0  0  0  0  0  0  0  0
   -7.7358   -0.6963    0.0000 C   0  0  0  0  0  0  0  0  0  0  0  0
   -6.4899   -1.4365    0.0000 C   0  0  0  0  0  0  0  0  0  0  0  0
   -5.1798   -0.7478    0.0000 C   0  0  0  0  0  0  0  0  0  0  0  0
   -5.1981    0.7504    0.0000 C   0  0  0  0  0  0  0  0  0  0  0  0
   -3.8989    1.5002    0.0000 C   0  0  0  0  0  0  0  0  0  0  0  0
   -2.6000    0.7500    0.0000 C   0  0  0  0  0  0  0  0  0  0  0  0
   -1.3000    1.5000    0.0000 C   0  0  0  0  0  0  0  0  0  0  0  0
    0.0000    0.7500    0.0000 C   0  0  0  0  0  0  0  0  0  0  0  0
    1.3000    1.5000    0.0000 C   0  0  0  0  0  0  0  0  0  0  0  0
    2.6000    0.7500    0.0000 C   0  0  0  0  0  0  0  0  0  0  0  0
    2.6000   -0.7500    0.0000 C   0  0  0  0  0  0  0  0  0  0  0  0
    1.3000   -1.5000    0.0000 C   0  0  0  0  0  0  0  0  0  0  0  0
    0.0000   -0.7500    0.0000 C   0  0  0  0  0  0  0  0  0  0  0  0
   -1.3000   -1.5000    0.0000 C   0  0  0  0  0  0  0  0  0  0  0  0
   -2.6000   -0.7500    0.0000 C   0  0  0  0  0  0  0  0  0  0  0  0
   -3.8989   -1.5002    0.0000 C   0  0  0  0  0  0  0  0  0  0  0  0
    0.3359   -2.6492    0.0000 C   0  0  0  0  0  0  0  0  0  0  0  0
    2.2641   -2.6492    0.0000 C   0  0  0  0  0  0  0  0  0  0  0  0
    2.2641    2.6492    0.0000 C   0  0  0  0  0  0  0  0  0  0  0  0
    0.3359    2.6492    0.0000 C   0  0  0  0  0  0  0  0  0  0  0  0
   -3.8987    3.0002    0.0000 C   0  0  0  0  0  0  0  0  0  0  0  0
   -6.4439    1.4906    0.0000 C   0  0  0  0  0  0  0  0  0  0  0  0
   -7.7540    0.8019    0.0000 C   0  0  0  0  0  0  0  0  0  0  0  0
   -1.3000    3.0000    0.0000 O   0  0  0  0  0  0  0  0  0  0  0  0
  1  2  1  0  0  0  0 
  2  3  2  0  0  0  0 
  2  4  1  0  0  0  0 
  4  5  2  0  0  0  0 
  5  6  1  0  0  0  0 
  6  7  2  0  0  0  0 
  7  8  1  0  0  0  0 
  8  9  1  0  0  0  0 
  9 10  2  0  0  0  0 
 10 11  1  0  0  0  0 
 11 12  1  0  0  0  0 
 12 13  1  0  0  0  0 
 13 14  1  0  0  0  0 
 14 15  1  0  0  0  0 
 15 16  1  0  0  0  0 
 11 16  2  0  0  0  0 
 16 17  1  0  0  0  0 
 17 18  2  0  0  0  0 
  9 18  1  0  0  0  0 
 18 19  1  0  0  0  0 
 15 20  1  0  0  0  0 
 15 21  1  0  0  0  0 
 12 22  1  0  0  0  0 
 12 23  1  0  0  0  0 
  8 24  2  0  0  0  0 
  7 25  1  0  0  0  0 
 25 26  2  0  0  0  0 
  4 26  1  0  0  0  0 
 10 27  1  0  0  0  0 
M  END
> <InChI>
InChI=1S/C24H28O3/c1-14-13-18-20(24(5,6)12-11-23(18,3)4)21(25)19(14)15(2)16-7-9-17(10-8-16)22(26)27/h7-10,13,25H,2,11-12H2,1,3-6H3,(H,26,27)

> <InChIKey>
KRLJKRXDXKTJMD-UHFFFAOYSA-N

> <SMILES>
OC(=O)C1=CC=C(C(C2=C(C=3C(CCC(C3C=C2C)(C)C)(C)C)O)=C)C=C1

> <Synonyms>


> <PUBCHEM_CID>


> <Molecular_formula>
C24H28O3

> <Major_Isotope_Mass>
364.20384475599997

> <ALogP>
5.3344

> <Lipinski_Violations>
1

> <Insecticide_Likeness_Violations>
0

> <Post_Em_Herbicide_Likeness_Violations>
0

> <Metabolite_ID>
BTM00005

> <Reaction>
Aromatic hydroxylation of fused benzene ring

> <Reaction_ID>
BTMR1031

> <Enzyme(s)>
CYP1A2
CYP2B6
CYP2C8
CYP2C9
CYP2C19
CYP2D6
CYP3A4

> <Biosystem>
HUMAN

> <Precursor_ID>
TEST0013_Bexarotene

> <Precursor_SMILES>
OC(=O)C1=CC=C(C(C2=CC=3C(CCC(C3C=C2C)(C)C)(C)C)=C)C=C1

> <Precursor_InChI>
InChI=1S/C24H28O2/c1-15-13-20-21(24(5,6)12-11-23(20,3)4)14-19(15)16(2)17-7-9-18(10-8-17)22(25)26/h7-10,13-14H,2,11-12H2,1,3-6H3,(H,25,26)

> <Precursor_InChIKey>
NAVMQTYZDKMPEU-UHFFFAOYSA-N

> <Precursor_ALogP>
5.601800

> <Precursor_Major_Isotope_Mass>
348.2089

$$$$
BTM00006
  CDK     07192412382D

 27 29  0  0  0  0  0  0  0  0999 V2000
  -10.3338   -0.6959    0.0000 O   0  0  0  0  0  0  0  0  0  0  0  0
   -9.0349   -1.4461    0.0000 C   0  0  0  0  0  0  0  0  0  0  0  0
   -9.0352   -2.9461    0.0000 O   0  0  0  0  0  0  0  0  0  0  0  0
   -7.7358   -0.6963    0.0000 C   0  0  0  0  0  0  0  0  0  0  0  0
   -6.4899   -1.4365    0.0000 C   0  0  0  0  0  0  0  0  0  0  0  0
   -5.1798   -0.7478    0.0000 C   0  0  0  0  0  0  0  0  0  0  0  0
   -5.1981    0.7504    0.0000 C   0  0  0  0  0  0  0  0  0  0  0  0
   -3.8989    1.5002    0.0000 C   0  0  0  0  0  0  0  0  0  0  0  0
   -2.6000    0.7500    0.0000 C   0  0  0  0  0  0  0  0  0  0  0  0
   -1.3000    1.5000    0.0000 C   0  0  0  0  0  0  0  0  0  0  0  0
    0.0000    0.7500    0.0000 C   0  0  0  0  0  0  0  0  0  0  0  0
    1.3000    1.5000    0.0000 C   0  0  0  0  0  0  0  0  0  0  0  0
    2.6000    0.7500    0.0000 C   0  0  0  0  0  0  0  0  0  0  0  0
    2.6000   -0.7500    0.0000 C   0  0  0  0  0  0  0  0  0  0  0  0
    1.3000   -1.5000    0.0000 C   0  0  0  0  0  0  0  0  0  0  0  0
    0.0000   -0.7500    0.0000 C   0  0  0  0  0  0  0  0  0  0  0  0
   -1.3000   -1.5000    0.0000 C   0  0  0  0  0  0  0  0  0  0  0  0
   -2.6000   -0.7500    0.0000 C   0  0  0  0  0  0  0  0  0  0  0  0
   -3.8989   -1.5002    0.0000 C   0  0  0  0  0  0  0  0  0  0  0  0
    0.3359   -2.6492    0.0000 C   0  0  0  0  0  0  0  0  0  0  0  0
    2.2641   -2.6492    0.0000 C   0  0  0  0  0  0  0  0  0  0  0  0
    2.2641    2.6492    0.0000 C   0  0  0  0  0  0  0  0  0  0  0  0
    0.3359    2.6492    0.0000 C   0  0  0  0  0  0  0  0  0  0  0  0
   -3.8987    3.0002    0.0000 C   0  0  0  0  0  0  0  0  0  0  0  0
   -6.4439    1.4906    0.0000 C   0  0  0  0  0  0  0  0  0  0  0  0
   -7.7540    0.8019    0.0000 C   0  0  0  0  0  0  0  0  0  0  0  0
   -1.3000   -3.0000    0.0000 O   0  0  0  0  0  0  0  0  0  0  0  0
  1  2  1  0  0  0  0 
  2  3  2  0  0  0  0 
  2  4  1  0  0  0  0 
  4  5  2  0  0  0  0 
  5  6  1  0  0  0  0 
  6  7  2  0  0  0  0 
  7  8  1  0  0  0  0 
  8  9  1  0  0  0  0 
  9 10  2  0  0  0  0 
 10 11  1  0  0  0  0 
 11 12  1  0  0  0  0 
 12 13  1  0  0  0  0 
 13 14  1  0  0  0  0 
 14 15  1  0  0  0  0 
 15 16  1  0  0  0  0 
 11 16  2  0  0  0  0 
 16 17  1  0  0  0  0 
 17 18  2  0  0  0  0 
  9 18  1  0  0  0  0 
 18 19  1  0  0  0  0 
 15 20  1  0  0  0  0 
 15 21  1  0  0  0  0 
 12 22  1  0  0  0  0 
 12 23  1  0  0  0  0 
  8 24  2  0  0  0  0 
  7 25  1  0  0  0  0 
 25 26  2  0  0  0  0 
  4 26  1  0  0  0  0 
 17 27  1  0  0  0  0 
M  END
> <InChI>
InChI=1S/C24H28O3/c1-14(16-7-9-17(10-8-16)22(26)27)18-13-19-20(21(25)15(18)2)24(5,6)12-11-23(19,3)4/h7-10,13,25H,1,11-12H2,2-6H3,(H,26,27)

> <InChIKey>
WWZBNHUNLGOHRV-UHFFFAOYSA-N

> <SMILES>
OC(=O)C1=CC=C(C(C2=CC=3C(CCC(C3C(=C2C)O)(C)C)(C)C)=C)C=C1

> <Synonyms>


> <PUBCHEM_CID>


> <Molecular_formula>
C24H28O3

> <Major_Isotope_Mass>
364.20384475599997

> <ALogP>
5.3344

> <Lipinski_Violations>
1

> <Insecticide_Likeness_Violations>
0

> <Post_Em_Herbicide_Likeness_Violations>
0

> <Metabolite_ID>
BTM00006

> <Reaction>
Aromatic hydroxylation of fused benzene ring

> <Reaction_ID>
BTMR1031

> <Enzyme(s)>
CYP1A2
CYP2B6
CYP2C8
CYP2C9
CYP2C19
CYP2D6
CYP3A4

> <Biosystem>
HUMAN

> <Precursor_ID>
TEST0013_Bexarotene

> <Precursor_SMILES>
OC(=O)C1=CC=C(C(C2=CC=3C(CCC(C3C=C2C)(C)C)(C)C)=C)C=C1

> <Precursor_InChI>
InChI=1S/C24H28O2/c1-15-13-20-21(24(5,6)12-11-23(20,3)4)14-19(15)16(2)17-7-9-18(10-8-17)22(25)26/h7-10,13-14H,2,11-12H2,1,3-6H3,(H,25,26)

> <Precursor_InChIKey>
NAVMQTYZDKMPEU-UHFFFAOYSA-N

> <Precursor_ALogP>
5.601800

> <Precursor_Major_Isotope_Mass>
348.2089

$$$$
BTM00007
  CDK     07192412382D

 27 30  0  0  0  0  0  0  0  0999 V2000
   -1.6690   -3.7500    0.0000 O   0  0  0  0  0  0  0  0  0  0  0  0
   -0.3700   -3.0000    0.0000 C   0  0  0  0  0  0  0  0  0  0  0  0
    0.9290   -3.7500    0.0000 O   0  0  0  0  0  0  0  0  0  0  0  0
   -0.3700   -1.5000    0.0000 C   0  0  0  0  0  0  0  0  0  0  0  0
    0.9300   -0.7500    0.0000 C   0  0  0  0  0  0  0  0  0  0  0  0
    0.9300    0.7500    0.0000 C   0  0  0  0  0  0  0  0  0  0  0  0
   -0.3700    1.5000    0.0000 C   0  0  0  0  0  0  0  0  0  0  0  0
   -0.3700    3.0000    0.0000 C   0  0  0  0  0  0  0  0  0  0  0  0
   -1.6690    3.7500    0.0000 C   0  0  0  0  0  0  0  0  0  0  0  0
   -2.9689    2.9998    0.0000 C   0  0  0  0  0  0  0  0  0  0  0  0
   -4.2690    3.7496    0.0000 C   0  0  0  0  0  0  0  0  0  0  0  0
   -5.5689    2.9994    0.0000 C   0  0  0  0  0  0  0  0  0  0  0  0
   -6.8690    3.7492    0.0000 C   0  0  0  0  0  0  0  0  0  0  0  0
   -6.8693    5.2492    0.0000 C   0  0  0  0  0  0  0  0  0  0  0  0
   -5.5694    5.9994    0.0000 C   0  0  0  0  0  0  0  0  0  0  0  0
   -4.2693    5.2496    0.0000 C   0  0  0  0  0  0  0  0  0  0  0  0
   -2.9694    5.9998    0.0000 C   0  0  0  0  0  0  0  0  0  0  0  0
   -1.6693    5.2500    0.0000 C   0  0  0  0  0  0  0  0  0  0  0  0
   -0.3705    6.0004    0.0000 C   0  0  0  0  0  0  0  0  0  0  0  0
   -4.6055    7.1487    0.0000 C   0  0  0  0  0  0  0  0  0  0  0  0
   -6.5336    7.1484    0.0000 C   0  0  0  0  0  0  0  0  0  0  0  0
   -6.5328    1.8501    0.0000 C   0  0  0  0  0  0  0  0  0  0  0  0
   -4.6047    1.8504    0.0000 C   0  0  0  0  0  0  0  0  0  0  0  0
    0.9290    3.7500    0.0000 C   0  0  0  0  0  0  0  0  0  0  0  0
   -1.6700    0.7500    0.0000 C   0  0  0  0  0  0  0  0  0  0  0  0
   -1.6700   -0.7500    0.0000 C   0  0  0  0  0  0  0  0  0  0  0  0
    2.2300   -0.0000    0.0000 O   0  0  0  0  0  0  0  0  0  0  0  0
  1  2  1  0  0  0  0 
  2  3  2  0  0  0  0 
  2  4  1  0  0  0  0 
  4  5  1  0  0  0  0 
  5  6  1  0  0  0  0 
  6  7  1  0  0  0  0 
  7  8  1  0  0  0  0 
  8  9  1  0  0  0  0 
  9 10  2  0  0  0  0 
 10 11  1  0  0  0  0 
 11 12  1  0  0  0  0 
 12 13  1  0  0  0  0 
 13 14  1  0  0  0  0 
 14 15  1  0  0  0  0 
 15 16  1  0  0  0  0 
 11 16  2  0  0  0  0 
 16 17  1  0  0  0  0 
 17 18  2  0  0  0  0 
  9 18  1  0  0  0  0 
 18 19  1  0  0  0  0 
 15 20  1  0  0  0  0 
 15 21  1  0  0  0  0 
 12 22  1  0  0  0  0 
 12 23  1  0  0  0  0 
  8 24  2  0  0  0  0 
  7 25  2  0  0  0  0 
 25 26  1  0  0  0  0 
  4 26  2  0  0  0  0 
  5 27  1  0  0  0  0 
 27  6  1  0  0  0  0 
M  END
> <InChI>
InChI=1S/C24H28O3/c1-13-11-18-19(24(5,6)10-9-23(18,3)4)12-17(13)14(2)15-7-8-16(22(25)26)21-20(15)27-21/h7-8,11-12,20-21H,2,9-10H2,1,3-6H3,(H,25,26)

> <InChIKey>
UDQLOXIDTMGSHJ-UHFFFAOYSA-N

> <SMILES>
OC(=O)C=1C2C(C(C(C3=CC=4C(CCC(C4C=C3C)(C)C)(C)C)=C)=CC1)O2

> <Synonyms>


> <PUBCHEM_CID>


> <Molecular_formula>
C24H28O3

> <Major_Isotope_Mass>
364.20384475599997

> <ALogP>
4.363600000000002

> <Lipinski_Violations>
1

> <Insecticide_Likeness_Violations>
0

> <Post_Em_Herbicide_Likeness_Violations>
0

> <Metabolite_ID>
BTM00007

> <Reaction>
Epoxidation of arene

> <Reaction_ID>
BTMR1028

> <Enzyme(s)>
CYP1A2
CYP2B6
CYP2C8
CYP2C9
CYP2C19
CYP3A4

> <Biosystem>
HUMAN

> <Precursor_ID>
TEST0013_Bexarotene

> <Precursor_SMILES>
OC(=O)C1=CC=C(C(C2=CC=3C(CCC(C3C=C2C)(C)C)(C)C)=C)C=C1

> <Precursor_InChI>
InChI=1S/C24H28O2/c1-15-13-20-21(24(5,6)12-11-23(20,3)4)14-19(15)16(2)17-7-9-18(10-8-17)22(25)26/h7-10,13-14H,2,11-12H2,1,3-6H3,(H,25,26)

> <Precursor_InChIKey>
NAVMQTYZDKMPEU-UHFFFAOYSA-N

> <Precursor_ALogP>
5.601800

> <Precursor_Major_Isotope_Mass>
348.2089

$$$$
BTM00001
  CDK     07192412382D

 27 29  0  0  0  0  0  0  0  0999 V2000
  -10.3338   -0.6959    0.0000 O   0  0  0  0  0  0  0  0  0  0  0  0
   -9.0349   -1.4461    0.0000 C   0  0  0  0  0  0  0  0  0  0  0  0
   -9.0352   -2.9461    0.0000 O   0  0  0  0  0  0  0  0  0  0  0  0
   -7.7358   -0.6963    0.0000 C   0  0  0  0  0  0  0  0  0  0  0  0
   -6.4899   -1.4365    0.0000 C   0  0  0  0  0  0  0  0  0  0  0  0
   -5.1798   -0.7478    0.0000 C   0  0  0  0  0  0  0  0  0  0  0  0
   -5.1981    0.7504    0.0000 C   0  0  0  0  0  0  0  0  0  0  0  0
   -3.8989    1.5002    0.0000 C   0  0  0  0  0  0  0  0  0  0  0  0
   -2.6000    0.7500    0.0000 C   0  0  0  0  0  0  0  0  0  0  0  0
   -1.3000    1.5000    0.0000 C   0  0  0  0  0  0  0  0  0  0  0  0
    0.0000    0.7500    0.0000 C   0  0  0  0  0  0  0  0  0  0  0  0
    1.3000    1.5000    0.0000 C   0  0  0  0  0  0  0  0  0  0  0  0
    2.6000    0.7500    0.0000 C   0  0  0  0  0  0  0  0  0  0  0  0
    2.6000   -0.7500    0.0000 C   0  0  0  0  0  0  0  0  0  0  0  0
    1.3000   -1.5000    0.0000 C   0  0  0  0  0  0  0  0  0  0  0  0
    0.0000   -0.7500    0.0000 C   0  0  0  0  0  0  0  0  0  0  0  0
   -1.3000   -1.5000    0.0000 C   0  0  0  0  0  0  0  0  0  0  0  0
   -2.6000   -0.7500    0.0000 C   0  0  0  0  0  0  0  0  0  0  0  0
   -3.8989   -1.5002    0.0000 C   0  0  0  0  0  0  0  0  0  0  0  0
    0.3359   -2.6492    0.0000 C   0  0  0  0  0  0  0  0  0  0  0  0
    2.2641   -2.6492    0.0000 C   0  0  0  0  0  0  0  0  0  0  0  0
    2.2641    2.6492    0.0000 C   0  0  0  0  0  0  0  0  0  0  0  0
    0.3359    2.6492    0.0000 C   0  0  0  0  0  0  0  0  0  0  0  0
   -3.8987    3.0002    0.0000 C   0  0  0  0  0  0  0  0  0  0  0  0
   -6.4439    1.4906    0.0000 C   0  0  0  0  0  0  0  0  0  0  0  0
   -7.7540    0.8019    0.0000 C   0  0  0  0  0  0  0  0  0  0  0  0
   -3.8987   -3.0002    0.0000 O   0  0  0  0  0  0  0  0  0  0  0  0
  1  2  1  0  0  0  0 
  2  3  2  0  0  0  0 
  2  4  1  0  0  0  0 
  4  5  2  0  0  0  0 
  5  6  1  0  0  0  0 
  6  7  2  0  0  0  0 
  7  8  1  0  0  0  0 
  8  9  1  0  0  0  0 
  9 10  2  0  0  0  0 
 10 11  1  0  0  0  0 
 11 12  1  0  0  0  0 
 12 13  1  0  0  0  0 
 13 14  1  0  0  0  0 
 14 15  1  0  0  0  0 
 15 16  1  0  0  0  0 
 11 16  2  0  0  0  0 
 16 17  1  0  0  0  0 
 17 18  2  0  0  0  0 
  9 18  1  0  0  0  0 
 18 19  1  0  0  0  0 
 15 20  1  0  0  0  0 
 15 21  1  0  0  0  0 
 12 22  1  0  0  0  0 
 12 23  1  0  0  0  0 
  8 24  2  0  0  0  0 
  7 25  1  0  0  0  0 
 25 26  2  0  0  0  0 
  4 26  1  0  0  0  0 
 27 19  1  0  0  0  0 
M  END
> <InChI>
InChI=1S/C24H28O3/c1-15(16-6-8-17(9-7-16)22(26)27)19-13-21-20(12-18(19)14-25)23(2,3)10-11-24(21,4)5/h6-9,12-13,25H,1,10-11,14H2,2-5H3,(H,26,27)

> <InChIKey>
GAIKXENNAPPIPY-UHFFFAOYSA-N

> <SMILES>
OC(=O)C1=CC=C(C(C2=CC=3C(CCC(C3C=C2CO)(C)C)(C)C)=C)C=C1

> <Synonyms>


> <PUBCHEM_CID>


> <Molecular_formula>
C24H28O3

> <Major_Isotope_Mass>
364.20384475599997

> <ALogP>
4.511100000000003

> <Lipinski_Violations>
1

> <Insecticide_Likeness_Violations>
0

> <Post_Em_Herbicide_Likeness_Violations>
0

> <Metabolite_ID>
BTM00001

> <Reaction>
Allylic hydroxylation

> <Reaction_ID>
BTMR0071

> <Enzyme(s)>
CYP1A2
CYP2B6
CYP2C19
CYP2D6
CYP3A4

> <Biosystem>
HUMAN

> <Precursor_ID>
TEST0013_Bexarotene

> <Precursor_SMILES>
OC(=O)C1=CC=C(C(C2=CC=3C(CCC(C3C=C2C)(C)C)(C)C)=C)C=C1

> <Precursor_InChI>
InChI=1S/C24H28O2/c1-15-13-20-21(24(5,6)12-11-23(20,3)4)14-19(15)16(2)17-7-9-18(10-8-17)22(25)26/h7-10,13-14H,2,11-12H2,1,3-6H3,(H,25,26)

> <Precursor_InChIKey>
NAVMQTYZDKMPEU-UHFFFAOYSA-N

> <Precursor_ALogP>
5.601800

> <Precursor_Major_Isotope_Mass>
348.2089

$$$$
BTM00008
  CDK     07192412382D

 27 29  0  0  0  0  0  0  0  0999 V2000
  -10.3338   -0.6959    0.0000 O   0  0  0  0  0  0  0  0  0  0  0  0
   -9.0349   -1.4461    0.0000 C   0  0  0  0  0  0  0  0  0  0  0  0
   -9.0352   -2.9461    0.0000 O   0  0  0  0  0  0  0  0  0  0  0  0
   -7.7358   -0.6963    0.0000 C   0  0  0  0  0  0  0  0  0  0  0  0
   -6.4899   -1.4365    0.0000 C   0  0  0  0  0  0  0  0  0  0  0  0
   -5.1798   -0.7478    0.0000 C   0  0  0  0  0  0  0  0  0  0  0  0
   -5.1981    0.7504    0.0000 C   0  0  0  0  0  0  0  0  0  0  0  0
   -3.8989    1.5002    0.0000 C   0  0  0  0  0  0  0  0  0  0  0  0
   -2.6000    0.7500    0.0000 C   0  0  0  0  0  0  0  0  0  0  0  0
   -1.3000    1.5000    0.0000 C   0  0  0  0  0  0  0  0  0  0  0  0
    0.0000    0.7500    0.0000 C   0  0  0  0  0  0  0  0  0  0  0  0
    1.3000    1.5000    0.0000 C   0  0  0  0  0  0  0  0  0  0  0  0
    2.6000    0.7500    0.0000 C   0  0  0  0  0  0  0  0  0  0  0  0
    2.6000   -0.7500    0.0000 C   0  0  0  0  0  0  0  0  0  0  0  0
    1.3000   -1.5000    0.0000 C   0  0  0  0  0  0  0  0  0  0  0  0
    0.0000   -0.7500    0.0000 C   0  0  0  0  0  0  0  0  0  0  0  0
   -1.3000   -1.5000    0.0000 C   0  0  0  0  0  0  0  0  0  0  0  0
   -2.6000   -0.7500    0.0000 C   0  0  0  0  0  0  0  0  0  0  0  0
   -3.8989   -1.5002    0.0000 C   0  0  0  0  0  0  0  0  0  0  0  0
    0.3359   -2.6492    0.0000 C   0  0  0  0  0  0  0  0  0  0  0  0
    2.2641   -2.6492    0.0000 C   0  0  0  0  0  0  0  0  0  0  0  0
    2.2641    2.6492    0.0000 C   0  0  0  0  0  0  0  0  0  0  0  0
    0.3359    2.6492    0.0000 C   0  0  0  0  0  0  0  0  0  0  0  0
   -3.8987    3.0002    0.0000 C   0  0  0  0  0  0  0  0  0  0  0  0
   -6.4439    1.4906    0.0000 C   0  0  0  0  0  0  0  0  0  0  0  0
   -7.7540    0.8019    0.0000 C   0  0  0  0  0  0  0  0  0  0  0  0
    0.8491    4.0587    0.0000 O   0  0  0  0  0  0  0  0  0  0  0  0
  1  2  1  0  0  0  0 
  2  3  2  0  0  0  0 
  2  4  1  0  0  0  0 
  4  5  2  0  0  0  0 
  5  6  1  0  0  0  0 
  6  7  2  0  0  0  0 
  7  8  1  0  0  0  0 
  8  9  1  0  0  0  0 
  9 10  2  0  0  0  0 
 10 11  1  0  0  0  0 
 11 12  1  0  0  0  0 
 12 13  1  0  0  0  0 
 13 14  1  0  0  0  0 
 14 15  1  0  0  0  0 
 15 16  1  0  0  0  0 
 11 16  2  0  0  0  0 
 16 17  1  0  0  0  0 
 17 18  2  0  0  0  0 
  9 18  1  0  0  0  0 
 18 19  1  0  0  0  0 
 15 20  1  0  0  0  0 
 15 21  1  0  0  0  0 
 12 22  1  0  0  0  0 
 12 23  1  0  0  0  0 
  8 24  2  0  0  0  0 
  7 25  1  0  0  0  0 
 25 26  2  0  0  0  0 
  4 26  1  0  0  0  0 
 27 23  1  0  0  0  0 
M  END
> <InChI>
InChI=1S/C24H28O3/c1-15-12-20-21(24(5,14-25)11-10-23(20,3)4)13-19(15)16(2)17-6-8-18(9-7-17)22(26)27/h6-9,12-13,25H,2,10-11,14H2,1,3-5H3,(H,26,27)

> <InChIKey>
WQIKLZAZUWMMCJ-UHFFFAOYSA-N

> <SMILES>
OC(=O)C1=CC=C(C(C2=CC=3C(CCC(C3C=C2C)(C)C)(C)CO)=C)C=C1

> <Synonyms>


> <PUBCHEM_CID>


> <Molecular_formula>
C24H28O3

> <Major_Isotope_Mass>
364.20384475599997

> <ALogP>
4.511100000000003

> <Lipinski_Violations>
1

> <Insecticide_Likeness_Violations>
0

> <Post_Em_Herbicide_Likeness_Violations>
0

> <Metabolite_ID>
BTM00008

> <Reaction>
Hydroxylation of methyl carbon adjacent to aliphatic ring

> <Reaction_ID>
BTMR0054

> <Enzyme(s)>
CYP2B6
CYP2C8
CYP2C9
CYP2C19
CYP2D6
CYP3A4

> <Biosystem>
HUMAN

> <Precursor_ID>
TEST0013_Bexarotene

> <Precursor_SMILES>
OC(=O)C1=CC=C(C(C2=CC=3C(CCC(C3C=C2C)(C)C)(C)C)=C)C=C1

> <Precursor_InChI>
InChI=1S/C24H28O2/c1-15-13-20-21(24(5,6)12-11-23(20,3)4)14-19(15)16(2)17-7-9-18(10-8-17)22(25)26/h7-10,13-14H,2,11-12H2,1,3-6H3,(H,25,26)

> <Precursor_InChIKey>
NAVMQTYZDKMPEU-UHFFFAOYSA-N

> <Precursor_ALogP>
5.601800

> <Precursor_Major_Isotope_Mass>
348.2089

$$$$
BTM00009
  CDK     07192412382D

 27 29  0  0  0  0  0  0  0  0999 V2000
  -10.3338   -0.6959    0.0000 O   0  0  0  0  0  0  0  0  0  0  0  0
   -9.0349   -1.4461    0.0000 C   0  0  0  0  0  0  0  0  0  0  0  0
   -9.0352   -2.9461    0.0000 O   0  0  0  0  0  0  0  0  0  0  0  0
   -7.7358   -0.6963    0.0000 C   0  0  0  0  0  0  0  0  0  0  0  0
   -6.4899   -1.4365    0.0000 C   0  0  0  0  0  0  0  0  0  0  0  0
   -5.1798   -0.7478    0.0000 C   0  0  0  0  0  0  0  0  0  0  0  0
   -5.1981    0.7504    0.0000 C   0  0  0  0  0  0  0  0  0  0  0  0
   -3.8989    1.5002    0.0000 C   0  0  0  0  0  0  0  0  0  0  0  0
   -2.6000    0.7500    0.0000 C   0  0  0  0  0  0  0  0  0  0  0  0
   -1.3000    1.5000    0.0000 C   0  0  0  0  0  0  0  0  0  0  0  0
    0.0000    0.7500    0.0000 C   0  0  0  0  0  0  0  0  0  0  0  0
    1.3000    1.5000    0.0000 C   0  0  0  0  0  0  0  0  0  0  0  0
    2.6000    0.7500    0.0000 C   0  0  0  0  0  0  0  0  0  0  0  0
    2.6000   -0.7500    0.0000 C   0  0  0  0  0  0  0  0  0  0  0  0
    1.3000   -1.5000    0.0000 C   0  0  0  0  0  0  0  0  0  0  0  0
    0.0000   -0.7500    0.0000 C   0  0  0  0  0  0  0  0  0  0  0  0
   -1.3000   -1.5000    0.0000 C   0  0  0  0  0  0  0  0  0  0  0  0
   -2.6000   -0.7500    0.0000 C   0  0  0  0  0  0  0  0  0  0  0  0
   -3.8989   -1.5002    0.0000 C   0  0  0  0  0  0  0  0  0  0  0  0
    0.3359   -2.6492    0.0000 C   0  0  0  0  0  0  0  0  0  0  0  0
    2.2641   -2.6492    0.0000 C   0  0  0  0  0  0  0  0  0  0  0  0
    2.2641    2.6492    0.0000 C   0  0  0  0  0  0  0  0  0  0  0  0
    0.3359    2.6492    0.0000 C   0  0  0  0  0  0  0  0  0  0  0  0
   -3.8987    3.0002    0.0000 C   0  0  0  0  0  0  0  0  0  0  0  0
   -6.4439    1.4906    0.0000 C   0  0  0  0  0  0  0  0  0  0  0  0
   -7.7540    0.8019    0.0000 C   0  0  0  0  0  0  0  0  0  0  0  0
    3.7413   -2.3889    0.0000 O   0  0  0  0  0  0  0  0  0  0  0  0
  1  2  1  0  0  0  0 
  2  3  2  0  0  0  0 
  2  4  1  0  0  0  0 
  4  5  2  0  0  0  0 
  5  6  1  0  0  0  0 
  6  7  2  0  0  0  0 
  7  8  1  0  0  0  0 
  8  9  1  0  0  0  0 
  9 10  2  0  0  0  0 
 10 11  1  0  0  0  0 
 11 12  1  0  0  0  0 
 12 13  1  0  0  0  0 
 13 14  1  0  0  0  0 
 14 15  1  0  0  0  0 
 15 16  1  0  0  0  0 
 11 16  2  0  0  0  0 
 16 17  1  0  0  0  0 
 17 18  2  0  0  0  0 
  9 18  1  0  0  0  0 
 18 19  1  0  0  0  0 
 15 20  1  0  0  0  0 
 15 21  1  0  0  0  0 
 12 22  1  0  0  0  0 
 12 23  1  0  0  0  0 
  8 24  2  0  0  0  0 
  7 25  1  0  0  0  0 
 25 26  2  0  0  0  0 
  4 26  1  0  0  0  0 
 27 21  1  0  0  0  0 
M  END
> <InChI>
InChI=1S/C24H28O3/c1-15-12-21-20(23(3,4)10-11-24(21,5)14-25)13-19(15)16(2)17-6-8-18(9-7-17)22(26)27/h6-9,12-13,25H,2,10-11,14H2,1,3-5H3,(H,26,27)

> <InChIKey>
FITBBXCPCOQFSG-UHFFFAOYSA-N

> <SMILES>
OC(=O)C1=CC=C(C(C2=CC=3C(CCC(C3C=C2C)(C)CO)(C)C)=C)C=C1

> <Synonyms>


> <PUBCHEM_CID>


> <Molecular_formula>
C24H28O3

> <Major_Isotope_Mass>
364.20384475599997

> <ALogP>
4.511100000000003

> <Lipinski_Violations>
1

> <Insecticide_Likeness_Violations>
0

> <Post_Em_Herbicide_Likeness_Violations>
0

> <Metabolite_ID>
BTM00009

> <Reaction>
Hydroxylation of methyl carbon adjacent to aliphatic ring

> <Reaction_ID>
BTMR0054

> <Enzyme(s)>
CYP2B6
CYP2C8
CYP2C9
CYP2C19
CYP2D6
CYP3A4

> <Biosystem>
HUMAN

> <Precursor_ID>
TEST0013_Bexarotene

> <Precursor_SMILES>
OC(=O)C1=CC=C(C(C2=CC=3C(CCC(C3C=C2C)(C)C)(C)C)=C)C=C1

> <Precursor_InChI>
InChI=1S/C24H28O2/c1-15-13-20-21(24(5,6)12-11-23(20,3)4)14-19(15)16(2)17-7-9-18(10-8-17)22(25)26/h7-10,13-14H,2,11-12H2,1,3-6H3,(H,25,26)

> <Precursor_InChIKey>
NAVMQTYZDKMPEU-UHFFFAOYSA-N

> <Precursor_ALogP>
5.601800

> <Precursor_Major_Isotope_Mass>
348.2089

$$$$
