BTM00001
  CDK     07192412422D

 29 32  0  0  0  0  0  0  0  0999 V2000
   -3.6089    1.5002    0.0000 S   0  0  0  0  0  0  0  0  0  0  0  0
   -4.9081    0.7504    0.0000 C   0  0  0  0  0  0  0  0  0  0  0  0
   -6.2078    1.5008    0.0000 C   0  0  0  0  0  0  0  0  0  0  0  0
   -7.5081    0.7512    0.0000 C   0  0  0  0  0  0  0  0  0  0  0  0
   -8.9379    1.2117    0.0000 N   0  0  0  0  0  0  0  0  0  0  0  0
   -9.8183    0.0020    0.0000 N   0  0  0  0  0  0  0  0  0  0  0  0
   -8.9387   -1.2083    0.0000 C   0  0  0  0  0  0  0  0  0  0  0  0
   -7.5086   -0.7488    0.0000 C   0  0  0  0  0  0  0  0  0  0  0  0
   -6.2088   -1.4992    0.0000 C   0  0  0  0  0  0  0  0  0  0  0  0
   -4.9086   -0.7496    0.0000 C   0  0  0  0  0  0  0  0  0  0  0  0
   -9.4044   -2.6342    0.0000 C   0  0  0  0  0  0  0  0  0  0  0  0
  -10.8721   -2.9438    0.0000 C   0  0  0  0  0  0  0  0  0  0  0  0
  -11.3379   -4.3696    0.0000 C   0  0  0  0  0  0  0  0  0  0  0  0
  -10.3355   -5.4867    0.0000 N   0  0  0  0  0  0  0  0  0  0  0  0
  -10.8008   -6.9135    0.0000 C   0  0  0  0  0  0  0  0  0  0  0  0
  -12.2685   -7.2234    0.0000 C   0  0  0  0  0  0  0  0  0  0  0  0
  -13.2708   -6.1063    0.0000 C   0  0  0  0  0  0  0  0  0  0  0  0
  -12.8055   -4.6794    0.0000 C   0  0  0  0  0  0  0  0  0  0  0  0
   -3.6087    3.0002    0.0000 C   0  0  0  0  0  0  0  0  0  0  0  0
   -2.3089    3.7506    0.0000 C   0  0  0  0  0  0  0  0  0  0  0  0
   -2.3130    5.2428    0.0000 C   0  0  0  0  0  0  0  0  0  0  0  0
   -3.6118    5.9932    0.0000 C   0  0  0  0  0  0  0  0  0  0  0  0
   -4.9065    5.2515    0.0000 C   0  0  0  0  0  0  0  0  0  0  0  0
   -4.9075    3.7506    0.0000 C   0  0  0  0  0  0  0  0  0  0  0  0
   -1.0089    3.0024    0.0000 C   0  0  0  0  0  0  0  0  0  0  0  0
   -1.0068    1.5024    0.0000 O   0  0  0  0  0  0  0  0  0  0  0  0
    0.2892    3.7541    0.0000 N   0  0  0  0  0  0  0  0  0  0  0  0
    0.2871    5.2541    0.0000 C   0  0  0  0  0  0  0  0  0  0  0  0
   -8.8679   -5.1768    0.0000 O   0  0  0  0  0  0  0  0  0  0  0  0
  1  2  1  0  0  0  0 
  2  3  2  0  0  0  0 
  3  4  1  0  0  0  0 
  4  5  1  0  0  0  0 
  5  6  1  0  0  0  0 
  6  7  2  0  0  0  0 
  7  8  1  0  0  0  0 
  4  8  2  0  0  0  0 
  8  9  1  0  0  0  0 
  9 10  2  0  0  0  0 
  2 10  1  0  0  0  0 
  7 11  1  0  0  0  0 
 11 12  2  0  0  0  0 
 12 13  1  0  0  0  0 
 13 14  2  0  0  0  0 
 14 15  1  0  0  0  0 
 15 16  2  0  0  0  0 
 16 17  1  0  0  0  0 
 17 18  2  0  0  0  0 
 13 18  1  0  0  0  0 
  1 19  1  0  0  0  0 
 19 20  2  0  0  0  0 
 20 21  1  0  0  0  0 
 21 22  2  0  0  0  0 
 22 23  1  0  0  0  0 
 23 24  2  0  0  0  0 
 19 24  1  0  0  0  0 
 20 25  1  0  0  0  0 
 25 26  2  0  0  0  0 
 25 27  1  0  0  0  0 
 27 28  1  0  0  0  0 
 29 14  1  0  0  0  0 
M  CHG  1  14   1
M  CHG  1  29  -1
M  END
> <InChI>
InChI=1S/C22H18N4O2S/c1-23-22(27)18-7-2-3-8-21(18)29-16-10-11-17-19(24-25-20(17)14-16)12-9-15-6-4-5-13-26(15)28/h2-14H,1H3,(H,23,27)(H,24,25)/b12-9+

> <InChIKey>
BWCABLGEIXVYOU-FMIVXFBMSA-N

> <SMILES>
S(C1=CC=2NN=C(C2C=C1)/C=C/C3=[N+](C=CC=C3)[O-])C4=C(C=CC=C4)C(=O)NC

> <Synonyms>


> <PUBCHEM_CID>


> <Molecular_formula>
C22H18N4O2S

> <Major_Isotope_Mass>
402.115046816

> <ALogP>
4.417699999999997

> <Lipinski_Violations>
1

> <Insecticide_Likeness_Violations>
0

> <Post_Em_Herbicide_Likeness_Violations>
0

> <Metabolite_ID>
BTM00001

> <Reaction>
Pyridine N-oxidation

> <Reaction_ID>
BTMR0096

> <Enzyme(s)>
CYP1A2
CYP2C9
CYP2D6
CYP3A4

> <Biosystem>
HUMAN

> <Precursor_ID>
TEST0069_axitinib

> <Precursor_SMILES>
S(C1=CC=2NN=C(C2C=C1)/C=C/C3=NC=CC=C3)C4=C(C=CC=C4)C(=O)NC

> <Precursor_InChI>
InChI=1S/C22H18N4OS/c1-23-22(27)18-7-2-3-8-21(18)28-16-10-11-17-19(25-26-20(17)14-16)12-9-15-6-4-5-13-24-15/h2-14H,1H3,(H,23,27)(H,25,26)/b12-9+

> <Precursor_InChIKey>
RITAVMQDGBJQJZ-FMIVXFBMSA-N

> <Precursor_ALogP>
4.647199

> <Precursor_Major_Isotope_Mass>
386.1201

$$$$
BTM00002
  CDK     07192412422D

 29 32  0  0  0  0  0  0  0  0999 V2000
   -3.6089    1.5002    0.0000 S   0  0  0  0  0  0  0  0  0  0  0  0
   -4.9081    0.7504    0.0000 C   0  0  0  0  0  0  0  0  0  0  0  0
   -6.2078    1.5008    0.0000 C   0  0  0  0  0  0  0  0  0  0  0  0
   -7.5081    0.7512    0.0000 C   0  0  0  0  0  0  0  0  0  0  0  0
   -8.9379    1.2117    0.0000 N   0  0  0  0  0  0  0  0  0  0  0  0
   -9.8183    0.0020    0.0000 N   0  0  0  0  0  0  0  0  0  0  0  0
   -8.9387   -1.2083    0.0000 C   0  0  0  0  0  0  0  0  0  0  0  0
   -7.5086   -0.7488    0.0000 C   0  0  0  0  0  0  0  0  0  0  0  0
   -6.2088   -1.4992    0.0000 C   0  0  0  0  0  0  0  0  0  0  0  0
   -4.9086   -0.7496    0.0000 C   0  0  0  0  0  0  0  0  0  0  0  0
   -9.4044   -2.6342    0.0000 C   0  0  0  0  0  0  0  0  0  0  0  0
  -10.8721   -2.9438    0.0000 C   0  0  0  0  0  0  0  0  0  0  0  0
  -11.3379   -4.3696    0.0000 C   0  0  0  0  0  0  0  0  0  0  0  0
  -10.3355   -5.4867    0.0000 N   0  0  0  0  0  0  0  0  0  0  0  0
  -10.8008   -6.9135    0.0000 C   0  0  0  0  0  0  0  0  0  0  0  0
  -12.2685   -7.2234    0.0000 C   0  0  0  0  0  0  0  0  0  0  0  0
  -13.2708   -6.1063    0.0000 C   0  0  0  0  0  0  0  0  0  0  0  0
  -12.8055   -4.6794    0.0000 C   0  0  0  0  0  0  0  0  0  0  0  0
   -3.6087    3.0002    0.0000 C   0  0  0  0  0  0  0  0  0  0  0  0
   -2.3089    3.7506    0.0000 C   0  0  0  0  0  0  0  0  0  0  0  0
   -2.3130    5.2428    0.0000 C   0  0  0  0  0  0  0  0  0  0  0  0
   -3.6118    5.9932    0.0000 C   0  0  0  0  0  0  0  0  0  0  0  0
   -4.9065    5.2515    0.0000 C   0  0  0  0  0  0  0  0  0  0  0  0
   -4.9075    3.7506    0.0000 C   0  0  0  0  0  0  0  0  0  0  0  0
   -1.0089    3.0024    0.0000 C   0  0  0  0  0  0  0  0  0  0  0  0
   -1.0068    1.5024    0.0000 O   0  0  0  0  0  0  0  0  0  0  0  0
    0.2892    3.7541    0.0000 N   0  0  0  0  0  0  0  0  0  0  0  0
    0.2871    5.2541    0.0000 C   0  0  0  0  0  0  0  0  0  0  0  0
   -2.3100    0.7500    0.0000 O   0  0  0  0  0  0  0  0  0  0  0  0
  1  2  1  0  0  0  0 
  2  3  2  0  0  0  0 
  3  4  1  0  0  0  0 
  4  5  1  0  0  0  0 
  5  6  1  0  0  0  0 
  6  7  2  0  0  0  0 
  7  8  1  0  0  0  0 
  4  8  2  0  0  0  0 
  8  9  1  0  0  0  0 
  9 10  2  0  0  0  0 
  2 10  1  0  0  0  0 
  7 11  1  0  0  0  0 
 11 12  2  0  0  0  0 
 12 13  1  0  0  0  0 
 13 14  2  0  0  0  0 
 14 15  1  0  0  0  0 
 15 16  2  0  0  0  0 
 16 17  1  0  0  0  0 
 17 18  2  0  0  0  0 
 13 18  1  0  0  0  0 
  1 19  1  0  0  0  0 
 19 20  2  0  0  0  0 
 20 21  1  0  0  0  0 
 21 22  2  0  0  0  0 
 22 23  1  0  0  0  0 
 23 24  2  0  0  0  0 
 19 24  1  0  0  0  0 
 20 25  1  0  0  0  0 
 25 26  2  0  0  0  0 
 25 27  1  0  0  0  0 
 27 28  1  0  0  0  0 
  1 29  2  0  0  0  0 
M  END
> <InChI>
InChI=1S/C22H18N4O2S/c1-23-22(27)18-7-2-3-8-21(18)29(28)16-10-11-17-19(25-26-20(17)14-16)12-9-15-6-4-5-13-24-15/h2-14H,1H3,(H,23,27)(H,25,26)/b12-9+

> <InChIKey>
MAHSNFBPPYMWFB-FMIVXFBMSA-N

> <SMILES>
S(C1=CC=2NN=C(C2C=C1)/C=C/C3=NC=CC=C3)(C4=C(C=CC=C4)C(=O)NC)=O

> <Synonyms>


> <PUBCHEM_CID>


> <Molecular_formula>
C22H18N4O2S

> <Major_Isotope_Mass>
402.115046816

> <ALogP>
3.444999999999998

> <Lipinski_Violations>
0

> <Insecticide_Likeness_Violations>
0

> <Post_Em_Herbicide_Likeness_Violations>
0

> <Metabolite_ID>
BTM00002

> <Reaction>
S-Oxidation of diarylthioether to sulfoxide

> <Reaction_ID>
BTMR0059

> <Enzyme(s)>
CYP1A2
CYP2D6
CYP3A4

> <Biosystem>
HUMAN

> <Precursor_ID>
TEST0069_axitinib

> <Precursor_SMILES>
S(C1=CC=2NN=C(C2C=C1)/C=C/C3=NC=CC=C3)C4=C(C=CC=C4)C(=O)NC

> <Precursor_InChI>
InChI=1S/C22H18N4OS/c1-23-22(27)18-7-2-3-8-21(18)28-16-10-11-17-19(25-26-20(17)14-16)12-9-15-6-4-5-13-24-15/h2-14H,1H3,(H,23,27)(H,25,26)/b12-9+

> <Precursor_InChIKey>
RITAVMQDGBJQJZ-FMIVXFBMSA-N

> <Precursor_ALogP>
4.647199

> <Precursor_Major_Isotope_Mass>
386.1201

$$$$
BTM00003
  CDK     07192412422D

 29 32  0  0  0  0  0  0  0  0999 V2000
   -3.6089    1.5002    0.0000 S   0  0  0  0  0  0  0  0  0  0  0  0
   -4.9081    0.7504    0.0000 C   0  0  0  0  0  0  0  0  0  0  0  0
   -6.2078    1.5008    0.0000 C   0  0  0  0  0  0  0  0  0  0  0  0
   -7.5081    0.7512    0.0000 C   0  0  0  0  0  0  0  0  0  0  0  0
   -8.9379    1.2117    0.0000 N   0  0  0  0  0  0  0  0  0  0  0  0
   -9.8183    0.0020    0.0000 N   0  0  0  0  0  0  0  0  0  0  0  0
   -8.9387   -1.2083    0.0000 C   0  0  0  0  0  0  0  0  0  0  0  0
   -7.5086   -0.7488    0.0000 C   0  0  0  0  0  0  0  0  0  0  0  0
   -6.2088   -1.4992    0.0000 C   0  0  0  0  0  0  0  0  0  0  0  0
   -4.9086   -0.7496    0.0000 C   0  0  0  0  0  0  0  0  0  0  0  0
   -9.4044   -2.6342    0.0000 C   0  0  0  0  0  0  0  0  0  0  0  0
  -10.8721   -2.9438    0.0000 C   0  0  0  0  0  0  0  0  0  0  0  0
  -11.3379   -4.3696    0.0000 C   0  0  0  0  0  0  0  0  0  0  0  0
  -10.3355   -5.4867    0.0000 N   0  0  0  0  0  0  0  0  0  0  0  0
  -10.8008   -6.9135    0.0000 C   0  0  0  0  0  0  0  0  0  0  0  0
  -12.2685   -7.2234    0.0000 C   0  0  0  0  0  0  0  0  0  0  0  0
  -13.2708   -6.1063    0.0000 C   0  0  0  0  0  0  0  0  0  0  0  0
  -12.8055   -4.6794    0.0000 C   0  0  0  0  0  0  0  0  0  0  0  0
   -3.6087    3.0002    0.0000 C   0  0  0  0  0  0  0  0  0  0  0  0
   -2.3089    3.7506    0.0000 C   0  0  0  0  0  0  0  0  0  0  0  0
   -2.3130    5.2428    0.0000 C   0  0  0  0  0  0  0  0  0  0  0  0
   -3.6118    5.9932    0.0000 C   0  0  0  0  0  0  0  0  0  0  0  0
   -4.9065    5.2515    0.0000 C   0  0  0  0  0  0  0  0  0  0  0  0
   -4.9075    3.7506    0.0000 C   0  0  0  0  0  0  0  0  0  0  0  0
   -1.0089    3.0024    0.0000 C   0  0  0  0  0  0  0  0  0  0  0  0
   -1.0068    1.5024    0.0000 O   0  0  0  0  0  0  0  0  0  0  0  0
    0.2892    3.7541    0.0000 N   0  0  0  0  0  0  0  0  0  0  0  0
    0.2871    5.2541    0.0000 C   0  0  0  0  0  0  0  0  0  0  0  0
   -3.6099   -1.5002    0.0000 O   0  0  0  0  0  0  0  0  0  0  0  0
  1  2  1  0  0  0  0 
  2  3  2  0  0  0  0 
  3  4  1  0  0  0  0 
  4  5  1  0  0  0  0 
  5  6  1  0  0  0  0 
  6  7  2  0  0  0  0 
  7  8  1  0  0  0  0 
  4  8  2  0  0  0  0 
  8  9  1  0  0  0  0 
  9 10  2  0  0  0  0 
  2 10  1  0  0  0  0 
  7 11  1  0  0  0  0 
 11 12  2  0  0  0  0 
 12 13  1  0  0  0  0 
 13 14  2  0  0  0  0 
 14 15  1  0  0  0  0 
 15 16  2  0  0  0  0 
 16 17  1  0  0  0  0 
 17 18  2  0  0  0  0 
 13 18  1  0  0  0  0 
  1 19  1  0  0  0  0 
 19 20  2  0  0  0  0 
 20 21  1  0  0  0  0 
 21 22  2  0  0  0  0 
 22 23  1  0  0  0  0 
 23 24  2  0  0  0  0 
 19 24  1  0  0  0  0 
 20 25  1  0  0  0  0 
 25 26  2  0  0  0  0 
 25 27  1  0  0  0  0 
 27 28  1  0  0  0  0 
 29 10  1  0  0  0  0 
M  END
> <InChI>
InChI=1S/C22H18N4O2S/c1-23-22(28)15-7-2-3-8-20(15)29-21-13-18-16(12-19(21)27)17(25-26-18)10-9-14-6-4-5-11-24-14/h2-13,27H,1H3,(H,23,28)(H,25,26)/b10-9+

> <InChIKey>
HLAPWTBYSXHOCT-MDZDMXLPSA-N

> <SMILES>
S(C1=CC=2NN=C(C2C=C1O)/C=C/C3=NC=CC=C3)C4=C(C=CC=C4)C(=O)NC

> <Synonyms>


> <PUBCHEM_CID>


> <Molecular_formula>
C22H18N4O2S

> <Major_Isotope_Mass>
402.115046816

> <ALogP>
4.379800000000001

> <Lipinski_Violations>
0

> <Insecticide_Likeness_Violations>
1

> <Post_Em_Herbicide_Likeness_Violations>
1

> <Metabolite_ID>
BTM00003

> <Reaction>
Aromatic hydroxylation of fused benzene ring

> <Reaction_ID>
BTMR1030

> <Enzyme(s)>
CYP1A2
CYP2C8
CYP2C9
CYP2C19
CYP2D6
CYP3A4

> <Biosystem>
HUMAN

> <Precursor_ID>
TEST0069_axitinib

> <Precursor_SMILES>
S(C1=CC=2NN=C(C2C=C1)/C=C/C3=NC=CC=C3)C4=C(C=CC=C4)C(=O)NC

> <Precursor_InChI>
InChI=1S/C22H18N4OS/c1-23-22(27)18-7-2-3-8-21(18)28-16-10-11-17-19(25-26-20(17)14-16)12-9-15-6-4-5-13-24-15/h2-14H,1H3,(H,23,27)(H,25,26)/b12-9+

> <Precursor_InChIKey>
RITAVMQDGBJQJZ-FMIVXFBMSA-N

> <Precursor_ALogP>
4.647199

> <Precursor_Major_Isotope_Mass>
386.1201

$$$$
BTM00004
  CDK     07192412422D

 29 32  0  0  0  0  0  0  0  0999 V2000
   -3.6089    1.5002    0.0000 S   0  0  0  0  0  0  0  0  0  0  0  0
   -2.3100    0.7500    0.0000 C   0  0  0  0  0  0  0  0  0  0  0  0
   -1.0100    1.5000    0.0000 C   0  0  0  0  0  0  0  0  0  0  0  0
    0.2900    0.7500    0.0000 C   0  0  0  0  0  0  0  0  0  0  0  0
    1.7200    1.2100    0.0000 N   0  0  0  0  0  0  0  0  0  0  0  0
    2.6000    0.0000    0.0000 N   0  0  0  0  0  0  0  0  0  0  0  0
    1.7200   -1.2100    0.0000 C   0  0  0  0  0  0  0  0  0  0  0  0
    0.2900   -0.7500    0.0000 C   0  0  0  0  0  0  0  0  0  0  0  0
   -1.0100   -1.5000    0.0000 C   0  0  0  0  0  0  0  0  0  0  0  0
   -2.3100   -0.7500    0.0000 C   0  0  0  0  0  0  0  0  0  0  0  0
    2.1853   -2.6360    0.0000 C   0  0  0  0  0  0  0  0  0  0  0  0
    3.6529   -2.9461    0.0000 C   0  0  0  0  0  0  0  0  0  0  0  0
    4.1182   -4.3721    0.0000 C   0  0  0  0  0  0  0  0  0  0  0  0
    3.1155   -5.4888    0.0000 N   0  0  0  0  0  0  0  0  0  0  0  0
    3.5803   -6.9159    0.0000 C   0  0  0  0  0  0  0  0  0  0  0  0
    5.0479   -7.2262    0.0000 C   0  0  0  0  0  0  0  0  0  0  0  0
    6.0506   -6.1094    0.0000 C   0  0  0  0  0  0  0  0  0  0  0  0
    5.5857   -4.6824    0.0000 C   0  0  0  0  0  0  0  0  0  0  0  0
   -3.6087    3.0002    0.0000 C   0  0  0  0  0  0  0  0  0  0  0  0
   -4.9082    3.7510    0.0000 C   0  0  0  0  0  0  0  0  0  0  0  0
   -4.9087    5.2519    0.0000 C   0  0  0  0  0  0  0  0  0  0  0  0
   -3.6096    6.0019    0.0000 C   0  0  0  0  0  0  0  0  0  0  0  0
   -2.3101    5.2510    0.0000 C   0  0  0  0  0  0  0  0  0  0  0  0
   -2.3096    3.7502    0.0000 C   0  0  0  0  0  0  0  0  0  0  0  0
   -6.2072    3.0010    0.0000 C   0  0  0  0  0  0  0  0  0  0  0  0
   -6.2072    1.5010    0.0000 O   0  0  0  0  0  0  0  0  0  0  0  0
   -7.5063    3.7510    0.0000 N   0  0  0  0  0  0  0  0  0  0  0  0
   -8.8053    3.0010    0.0000 C   0  0  0  0  0  0  0  0  0  0  0  0
   -6.2078    6.0017    0.0000 O   0  0  0  0  0  0  0  0  0  0  0  0
  1  2  1  0  0  0  0 
  2  3  2  0  0  0  0 
  3  4  1  0  0  0  0 
  4  5  1  0  0  0  0 
  5  6  1  0  0  0  0 
  6  7  2  0  0  0  0 
  7  8  1  0  0  0  0 
  4  8  2  0  0  0  0 
  8  9  1  0  0  0  0 
  9 10  2  0  0  0  0 
  2 10  1  0  0  0  0 
  7 11  1  0  0  0  0 
 11 12  2  0  0  0  0 
 12 13  1  0  0  0  0 
 13 14  2  0  0  0  0 
 14 15  1  0  0  0  0 
 15 16  2  0  0  0  0 
 16 17  1  0  0  0  0 
 17 18  2  0  0  0  0 
 13 18  1  0  0  0  0 
  1 19  1  0  0  0  0 
 19 20  2  0  0  0  0 
 20 21  1  0  0  0  0 
 21 22  2  0  0  0  0 
 22 23  1  0  0  0  0 
 23 24  2  0  0  0  0 
 19 24  1  0  0  0  0 
 20 25  1  0  0  0  0 
 25 26  2  0  0  0  0 
 25 27  1  0  0  0  0 
 27 28  1  0  0  0  0 
 29 21  1  0  0  0  0 
M  END
> <InChI>
InChI=1S/C22H18N4O2S/c1-23-22(28)21-19(27)6-4-7-20(21)29-15-9-10-16-17(25-26-18(16)13-15)11-8-14-5-2-3-12-24-14/h2-13,27H,1H3,(H,23,28)(H,25,26)/b11-8+

> <InChIKey>
USMVOMPQIODNRC-DHZHZOJOSA-N

> <SMILES>
S(C1=CC=2NN=C(C2C=C1)/C=C/C3=NC=CC=C3)C4=C(C(=CC=C4)O)C(=O)NC

> <Synonyms>


> <PUBCHEM_CID>


> <Molecular_formula>
C22H18N4O2S

> <Major_Isotope_Mass>
402.115046816

> <ALogP>
4.379800000000001

> <Lipinski_Violations>
1

> <Insecticide_Likeness_Violations>
1

> <Post_Em_Herbicide_Likeness_Violations>
1

> <Metabolite_ID>
BTM00004

> <Reaction>
Hydroxylation of benzene on carbon ortho to electron donating group

> <Reaction_ID>
BTMR1045

> <Enzyme(s)>
CYP1A2
CYP2C8
CYP2C9
CYP2C19
CYP2D6
CYP3A4

> <Biosystem>
HUMAN

> <Precursor_ID>
TEST0069_axitinib

> <Precursor_SMILES>
S(C1=CC=2NN=C(C2C=C1)/C=C/C3=NC=CC=C3)C4=C(C=CC=C4)C(=O)NC

> <Precursor_InChI>
InChI=1S/C22H18N4OS/c1-23-22(27)18-7-2-3-8-21(18)28-16-10-11-17-19(25-26-20(17)14-16)12-9-15-6-4-5-13-24-15/h2-14H,1H3,(H,23,27)(H,25,26)/b12-9+

> <Precursor_InChIKey>
RITAVMQDGBJQJZ-FMIVXFBMSA-N

> <Precursor_ALogP>
4.647199

> <Precursor_Major_Isotope_Mass>
386.1201

$$$$
BTM00005
  CDK     07192412422D

 29 32  0  0  0  0  0  0  0  0999 V2000
   -3.6089    1.5002    0.0000 S   0  0  0  0  0  0  0  0  0  0  0  0
   -2.3100    0.7500    0.0000 C   0  0  0  0  0  0  0  0  0  0  0  0
   -1.0100    1.5000    0.0000 C   0  0  0  0  0  0  0  0  0  0  0  0
    0.2900    0.7500    0.0000 C   0  0  0  0  0  0  0  0  0  0  0  0
    1.7200    1.2100    0.0000 N   0  0  0  0  0  0  0  0  0  0  0  0
    2.6000    0.0000    0.0000 N   0  0  0  0  0  0  0  0  0  0  0  0
    1.7200   -1.2100    0.0000 C   0  0  0  0  0  0  0  0  0  0  0  0
    0.2900   -0.7500    0.0000 C   0  0  0  0  0  0  0  0  0  0  0  0
   -1.0100   -1.5000    0.0000 C   0  0  0  0  0  0  0  0  0  0  0  0
   -2.3100   -0.7500    0.0000 C   0  0  0  0  0  0  0  0  0  0  0  0
    2.1853   -2.6360    0.0000 C   0  0  0  0  0  0  0  0  0  0  0  0
    3.6529   -2.9461    0.0000 C   0  0  0  0  0  0  0  0  0  0  0  0
    4.1182   -4.3721    0.0000 C   0  0  0  0  0  0  0  0  0  0  0  0
    3.1155   -5.4888    0.0000 N   0  0  0  0  0  0  0  0  0  0  0  0
    3.5803   -6.9159    0.0000 C   0  0  0  0  0  0  0  0  0  0  0  0
    5.0479   -7.2262    0.0000 C   0  0  0  0  0  0  0  0  0  0  0  0
    6.0506   -6.1094    0.0000 C   0  0  0  0  0  0  0  0  0  0  0  0
    5.5857   -4.6824    0.0000 C   0  0  0  0  0  0  0  0  0  0  0  0
   -3.6087    3.0002    0.0000 C   0  0  0  0  0  0  0  0  0  0  0  0
   -4.9082    3.7510    0.0000 C   0  0  0  0  0  0  0  0  0  0  0  0
   -4.9087    5.2519    0.0000 C   0  0  0  0  0  0  0  0  0  0  0  0
   -3.6096    6.0019    0.0000 C   0  0  0  0  0  0  0  0  0  0  0  0
   -2.3101    5.2510    0.0000 C   0  0  0  0  0  0  0  0  0  0  0  0
   -2.3096    3.7502    0.0000 C   0  0  0  0  0  0  0  0  0  0  0  0
   -6.2072    3.0010    0.0000 C   0  0  0  0  0  0  0  0  0  0  0  0
   -6.2072    1.5010    0.0000 O   0  0  0  0  0  0  0  0  0  0  0  0
   -7.5063    3.7510    0.0000 N   0  0  0  0  0  0  0  0  0  0  0  0
   -8.8053    3.0010    0.0000 C   0  0  0  0  0  0  0  0  0  0  0  0
   -1.0111    6.0010    0.0000 O   0  0  0  0  0  0  0  0  0  0  0  0
  1  2  1  0  0  0  0 
  2  3  2  0  0  0  0 
  3  4  1  0  0  0  0 
  4  5  1  0  0  0  0 
  5  6  1  0  0  0  0 
  6  7  2  0  0  0  0 
  7  8  1  0  0  0  0 
  4  8  2  0  0  0  0 
  8  9  1  0  0  0  0 
  9 10  2  0  0  0  0 
  2 10  1  0  0  0  0 
  7 11  1  0  0  0  0 
 11 12  2  0  0  0  0 
 12 13  1  0  0  0  0 
 13 14  2  0  0  0  0 
 14 15  1  0  0  0  0 
 15 16  2  0  0  0  0 
 16 17  1  0  0  0  0 
 17 18  2  0  0  0  0 
 13 18  1  0  0  0  0 
  1 19  1  0  0  0  0 
 19 20  2  0  0  0  0 
 20 21  1  0  0  0  0 
 21 22  2  0  0  0  0 
 22 23  1  0  0  0  0 
 23 24  2  0  0  0  0 
 19 24  1  0  0  0  0 
 20 25  1  0  0  0  0 
 25 26  2  0  0  0  0 
 25 27  1  0  0  0  0 
 27 28  1  0  0  0  0 
 29 23  1  0  0  0  0 
M  END
> <InChI>
InChI=1S/C22H18N4O2S/c1-23-22(28)18-8-6-15(27)12-21(18)29-16-7-9-17-19(25-26-20(17)13-16)10-5-14-4-2-3-11-24-14/h2-13,27H,1H3,(H,23,28)(H,25,26)/b10-5+

> <InChIKey>
IRWXIVPDEPJKDE-BJMVGYQFSA-N

> <SMILES>
S(C1=CC=2NN=C(C2C=C1)/C=C/C3=NC=CC=C3)C4=C(C=CC(=C4)O)C(=O)NC

> <Synonyms>


> <PUBCHEM_CID>


> <Molecular_formula>
C22H18N4O2S

> <Major_Isotope_Mass>
402.11504681599996

> <ALogP>
4.379800000000001

> <Lipinski_Violations>
0

> <Insecticide_Likeness_Violations>
1

> <Post_Em_Herbicide_Likeness_Violations>
1

> <Metabolite_ID>
BTM00005

> <Reaction>
Hydroxylation of benzene on carbon para to electron donating group

> <Reaction_ID>
BTMR1047

> <Enzyme(s)>
CYP1A2
CYP2C8
CYP2C9
CYP2D6
CYP3A4

> <Biosystem>
HUMAN

> <Precursor_ID>
TEST0069_axitinib

> <Precursor_SMILES>
S(C1=CC=2NN=C(C2C=C1)/C=C/C3=NC=CC=C3)C4=C(C=CC=C4)C(=O)NC

> <Precursor_InChI>
InChI=1S/C22H18N4OS/c1-23-22(27)18-7-2-3-8-21(18)28-16-10-11-17-19(25-26-20(17)14-16)12-9-15-6-4-5-13-24-15/h2-14H,1H3,(H,23,27)(H,25,26)/b12-9+

> <Precursor_InChIKey>
RITAVMQDGBJQJZ-FMIVXFBMSA-N

> <Precursor_ALogP>
4.647199

> <Precursor_Major_Isotope_Mass>
386.1201

$$$$
BTM00006
  CDK     07192412422D

 29 33  0  0  0  0  0  0  0  0999 V2000
   -3.6089    1.5002    0.0000 S   0  0  0  0  0  0  0  0  0  0  0  0
   -2.3100    0.7500    0.0000 C   0  0  0  0  0  0  0  0  0  0  0  0
   -1.0100    1.5000    0.0000 C   0  0  0  0  0  0  0  0  0  0  0  0
    0.2900    0.7500    0.0000 C   0  0  0  0  0  0  0  0  0  0  0  0
    1.7200    1.2100    0.0000 N   0  0  0  0  0  0  0  0  0  0  0  0
    2.6000    0.0000    0.0000 N   0  0  0  0  0  0  0  0  0  0  0  0
    1.7200   -1.2100    0.0000 C   0  0  0  0  0  0  0  0  0  0  0  0
    0.2900   -0.7500    0.0000 C   0  0  0  0  0  0  0  0  0  0  0  0
   -1.0100   -1.5000    0.0000 C   0  0  0  0  0  0  0  0  0  0  0  0
   -2.3100   -0.7500    0.0000 C   0  0  0  0  0  0  0  0  0  0  0  0
    2.1853   -2.6360    0.0000 C   0  0  0  0  0  0  0  0  0  0  0  0
    3.3014   -3.6382    0.0000 C   0  0  0  0  0  0  0  0  0  0  0  0
    4.7691   -3.9478    0.0000 C   0  0  0  0  0  0  0  0  0  0  0  0
    5.2353   -5.3743    0.0000 N   0  0  0  0  0  0  0  0  0  0  0  0
    6.7037   -5.6848    0.0000 C   0  0  0  0  0  0  0  0  0  0  0  0
    7.7058   -4.5687    0.0000 C   0  0  0  0  0  0  0  0  0  0  0  0
    7.2396   -3.1421    0.0000 C   0  0  0  0  0  0  0  0  0  0  0  0
    5.7712   -2.8316    0.0000 C   0  0  0  0  0  0  0  0  0  0  0  0
   -4.9081    0.7504    0.0000 C   0  0  0  0  0  0  0  0  0  0  0  0
   -6.2078    1.5008    0.0000 C   0  0  0  0  0  0  0  0  0  0  0  0
   -7.4981    0.7512    0.0000 C   0  0  0  0  0  0  0  0  0  0  0  0
   -7.4986   -0.7488    0.0000 C   0  0  0  0  0  0  0  0  0  0  0  0
   -6.2088   -1.4992    0.0000 C   0  0  0  0  0  0  0  0  0  0  0  0
   -4.9086   -0.7496    0.0000 C   0  0  0  0  0  0  0  0  0  0  0  0
   -6.2099    3.0008    0.0000 C   0  0  0  0  0  0  0  0  0  0  0  0
   -4.9118    3.7526    0.0000 O   0  0  0  0  0  0  0  0  0  0  0  0
   -7.5099    3.7491    0.0000 N   0  0  0  0  0  0  0  0  0  0  0  0
   -7.5120    5.2491    0.0000 C   0  0  0  0  0  0  0  0  0  0  0  0
    1.8748   -4.1044    0.0000 O   0  0  0  0  0  0  0  0  0  0  0  0
  1  2  1  0  0  0  0 
  2  3  2  0  0  0  0 
  3  4  1  0  0  0  0 
  4  5  1  0  0  0  0 
  5  6  1  0  0  0  0 
  6  7  2  0  0  0  0 
  7  8  1  0  0  0  0 
  4  8  2  0  0  0  0 
  8  9  1  0  0  0  0 
  9 10  2  0  0  0  0 
  2 10  1  0  0  0  0 
  7 11  1  0  0  0  0 
 11 12  1  0  0  0  0 
 12 13  1  0  0  0  0 
 13 14  2  0  0  0  0 
 14 15  1  0  0  0  0 
 15 16  2  0  0  0  0 
 16 17  1  0  0  0  0 
 17 18  2  0  0  0  0 
 13 18  1  0  0  0  0 
  1 19  1  0  0  0  0 
 19 20  2  0  0  0  0 
 20 21  1  0  0  0  0 
 21 22  2  0  0  0  0 
 22 23  1  0  0  0  0 
 23 24  2  0  0  0  0 
 19 24  1  0  0  0  0 
 20 25  1  0  0  0  0 
 25 26  2  0  0  0  0 
 25 27  1  0  0  0  0 
 27 28  1  0  0  0  0 
 12 29  1  0  0  0  0 
 29 11  1  0  0  0  0 
M  END
> <InChI>
InChI=1S/C22H18N4O2S/c1-23-22(27)15-6-2-3-8-18(15)29-13-9-10-14-17(12-13)25-26-19(14)21-20(28-21)16-7-4-5-11-24-16/h2-12,20-21H,1H3,(H,23,27)(H,25,26)

> <InChIKey>
FGCOQUHPCKQRLW-UHFFFAOYSA-N

> <SMILES>
S(C1=CC=2NN=C(C2C=C1)C3C(C4=NC=CC=C4)O3)C5=C(C=CC=C5)C(=O)NC

> <Synonyms>


> <PUBCHEM_CID>


> <Molecular_formula>
C22H18N4O2S

> <Major_Isotope_Mass>
402.115046816

> <ALogP>
3.9696999999999996

> <Lipinski_Violations>
0

> <Insecticide_Likeness_Violations>
0

> <Post_Em_Herbicide_Likeness_Violations>
0

> <Metabolite_ID>
BTM00006

> <Reaction>
Epoxidation of alkene

> <Reaction_ID>
BTMR0109

> <Enzyme(s)>
CYP1A2
CYP2C8
CYP2C9
CYP2C19
CYP2D6
CYP3A4

> <Biosystem>
HUMAN

> <Precursor_ID>
TEST0069_axitinib

> <Precursor_SMILES>
S(C1=CC=2NN=C(C2C=C1)/C=C/C3=NC=CC=C3)C4=C(C=CC=C4)C(=O)NC

> <Precursor_InChI>
InChI=1S/C22H18N4OS/c1-23-22(27)18-7-2-3-8-21(18)28-16-10-11-17-19(25-26-20(17)14-16)12-9-15-6-4-5-13-24-15/h2-14H,1H3,(H,23,27)(H,25,26)/b12-9+

> <Precursor_InChIKey>
RITAVMQDGBJQJZ-FMIVXFBMSA-N

> <Precursor_ALogP>
4.647199

> <Precursor_Major_Isotope_Mass>
386.1201

$$$$
BTM00007
  CDK     07192412422D

 29 32  0  0  0  0  0  0  0  0999 V2000
   -3.6089    1.5002    0.0000 S   0  0  0  0  0  0  0  0  0  0  0  0
   -4.9081    0.7504    0.0000 C   0  0  0  0  0  0  0  0  0  0  0  0
   -6.2078    1.5008    0.0000 C   0  0  0  0  0  0  0  0  0  0  0  0
   -7.5081    0.7512    0.0000 C   0  0  0  0  0  0  0  0  0  0  0  0
   -8.9379    1.2117    0.0000 N   0  0  0  0  0  0  0  0  0  0  0  0
   -9.8183    0.0020    0.0000 N   0  0  0  0  0  0  0  0  0  0  0  0
   -8.9387   -1.2083    0.0000 C   0  0  0  0  0  0  0  0  0  0  0  0
   -7.5086   -0.7488    0.0000 C   0  0  0  0  0  0  0  0  0  0  0  0
   -6.2088   -1.4992    0.0000 C   0  0  0  0  0  0  0  0  0  0  0  0
   -4.9086   -0.7496    0.0000 C   0  0  0  0  0  0  0  0  0  0  0  0
   -9.4044   -2.6342    0.0000 C   0  0  0  0  0  0  0  0  0  0  0  0
  -10.8721   -2.9438    0.0000 C   0  0  0  0  0  0  0  0  0  0  0  0
  -11.3379   -4.3696    0.0000 C   0  0  0  0  0  0  0  0  0  0  0  0
  -10.3355   -5.4867    0.0000 N   0  0  0  0  0  0  0  0  0  0  0  0
  -10.8008   -6.9135    0.0000 C   0  0  0  0  0  0  0  0  0  0  0  0
  -12.2685   -7.2234    0.0000 C   0  0  0  0  0  0  0  0  0  0  0  0
  -13.2708   -6.1063    0.0000 C   0  0  0  0  0  0  0  0  0  0  0  0
  -12.8055   -4.6794    0.0000 C   0  0  0  0  0  0  0  0  0  0  0  0
   -3.6087    3.0002    0.0000 C   0  0  0  0  0  0  0  0  0  0  0  0
   -2.3089    3.7506    0.0000 C   0  0  0  0  0  0  0  0  0  0  0  0
   -2.3130    5.2428    0.0000 C   0  0  0  0  0  0  0  0  0  0  0  0
   -3.6118    5.9932    0.0000 C   0  0  0  0  0  0  0  0  0  0  0  0
   -4.9065    5.2515    0.0000 C   0  0  0  0  0  0  0  0  0  0  0  0
   -4.9075    3.7506    0.0000 C   0  0  0  0  0  0  0  0  0  0  0  0
   -1.0089    3.0024    0.0000 C   0  0  0  0  0  0  0  0  0  0  0  0
   -1.0068    1.5024    0.0000 O   0  0  0  0  0  0  0  0  0  0  0  0
    0.2892    3.7541    0.0000 N   0  0  0  0  0  0  0  0  0  0  0  0
    0.2871    5.2541    0.0000 C   0  0  0  0  0  0  0  0  0  0  0  0
   -6.2074    3.0008    0.0000 O   0  0  0  0  0  0  0  0  0  0  0  0
  1  2  1  0  0  0  0 
  2  3  2  0  0  0  0 
  3  4  1  0  0  0  0 
  4  5  1  0  0  0  0 
  5  6  1  0  0  0  0 
  6  7  2  0  0  0  0 
  7  8  1  0  0  0  0 
  4  8  2  0  0  0  0 
  8  9  1  0  0  0  0 
  9 10  2  0  0  0  0 
  2 10  1  0  0  0  0 
  7 11  1  0  0  0  0 
 11 12  2  0  0  0  0 
 12 13  1  0  0  0  0 
 13 14  2  0  0  0  0 
 14 15  1  0  0  0  0 
 15 16  2  0  0  0  0 
 16 17  1  0  0  0  0 
 17 18  2  0  0  0  0 
 13 18  1  0  0  0  0 
  1 19  1  0  0  0  0 
 19 20  2  0  0  0  0 
 20 21  1  0  0  0  0 
 21 22  2  0  0  0  0 
 22 23  1  0  0  0  0 
 23 24  2  0  0  0  0 
 19 24  1  0  0  0  0 
 20 25  1  0  0  0  0 
 25 26  2  0  0  0  0 
 25 27  1  0  0  0  0 
 27 28  1  0  0  0  0 
  3 29  1  0  0  0  0 
M  END
> <InChI>
InChI=1S/C22H18N4O2S/c1-23-22(28)16-7-2-3-8-18(16)29-19-12-10-15-17(25-26-20(15)21(19)27)11-9-14-6-4-5-13-24-14/h2-13,27H,1H3,(H,23,28)(H,25,26)/b11-9+

> <InChIKey>
IURQNPFCOSAXAI-PKNBQFBNSA-N

> <SMILES>
S(C1=C(C=2NN=C(C2C=C1)/C=C/C3=NC=CC=C3)O)C4=C(C=CC=C4)C(=O)NC

> <Synonyms>


> <PUBCHEM_CID>


> <Molecular_formula>
C22H18N4O2S

> <Major_Isotope_Mass>
402.115046816

> <ALogP>
4.379800000000001

> <Lipinski_Violations>
0

> <Insecticide_Likeness_Violations>
1

> <Post_Em_Herbicide_Likeness_Violations>
1

> <Metabolite_ID>
BTM00007

> <Reaction>
Aromatic hydroxylation of fused benzene ring

> <Reaction_ID>
BTMR1031

> <Enzyme(s)>
CYP1A2
CYP2C8
CYP2C9
CYP2C19
CYP2D6
CYP3A4

> <Biosystem>
HUMAN

> <Precursor_ID>
TEST0069_axitinib

> <Precursor_SMILES>
S(C1=CC=2NN=C(C2C=C1)/C=C/C3=NC=CC=C3)C4=C(C=CC=C4)C(=O)NC

> <Precursor_InChI>
InChI=1S/C22H18N4OS/c1-23-22(27)18-7-2-3-8-21(18)28-16-10-11-17-19(25-26-20(17)14-16)12-9-15-6-4-5-13-24-15/h2-14H,1H3,(H,23,27)(H,25,26)/b12-9+

> <Precursor_InChIKey>
RITAVMQDGBJQJZ-FMIVXFBMSA-N

> <Precursor_ALogP>
4.647199

> <Precursor_Major_Isotope_Mass>
386.1201

$$$$
BTM00008
  CDK     07192412422D

 29 32  0  0  0  0  0  0  0  0999 V2000
   -3.6089    1.5002    0.0000 S   0  0  0  0  0  0  0  0  0  0  0  0
   -4.9081    0.7504    0.0000 C   0  0  0  0  0  0  0  0  0  0  0  0
   -6.2078    1.5008    0.0000 C   0  0  0  0  0  0  0  0  0  0  0  0
   -7.5081    0.7512    0.0000 C   0  0  0  0  0  0  0  0  0  0  0  0
   -8.9379    1.2117    0.0000 N   0  0  0  0  0  0  0  0  0  0  0  0
   -9.8183    0.0020    0.0000 N   0  0  0  0  0  0  0  0  0  0  0  0
   -8.9387   -1.2083    0.0000 C   0  0  0  0  0  0  0  0  0  0  0  0
   -7.5086   -0.7488    0.0000 C   0  0  0  0  0  0  0  0  0  0  0  0
   -6.2088   -1.4992    0.0000 C   0  0  0  0  0  0  0  0  0  0  0  0
   -4.9086   -0.7496    0.0000 C   0  0  0  0  0  0  0  0  0  0  0  0
   -9.4044   -2.6342    0.0000 C   0  0  0  0  0  0  0  0  0  0  0  0
  -10.8721   -2.9438    0.0000 C   0  0  0  0  0  0  0  0  0  0  0  0
  -11.3379   -4.3696    0.0000 C   0  0  0  0  0  0  0  0  0  0  0  0
  -10.3355   -5.4867    0.0000 N   0  0  0  0  0  0  0  0  0  0  0  0
  -10.8008   -6.9135    0.0000 C   0  0  0  0  0  0  0  0  0  0  0  0
  -12.2685   -7.2234    0.0000 C   0  0  0  0  0  0  0  0  0  0  0  0
  -13.2708   -6.1063    0.0000 C   0  0  0  0  0  0  0  0  0  0  0  0
  -12.8055   -4.6794    0.0000 C   0  0  0  0  0  0  0  0  0  0  0  0
   -3.6087    3.0002    0.0000 C   0  0  0  0  0  0  0  0  0  0  0  0
   -2.3089    3.7506    0.0000 C   0  0  0  0  0  0  0  0  0  0  0  0
   -2.3130    5.2428    0.0000 C   0  0  0  0  0  0  0  0  0  0  0  0
   -3.6118    5.9932    0.0000 C   0  0  0  0  0  0  0  0  0  0  0  0
   -4.9065    5.2515    0.0000 C   0  0  0  0  0  0  0  0  0  0  0  0
   -4.9075    3.7506    0.0000 C   0  0  0  0  0  0  0  0  0  0  0  0
   -1.0089    3.0024    0.0000 C   0  0  0  0  0  0  0  0  0  0  0  0
   -1.0068    1.5024    0.0000 O   0  0  0  0  0  0  0  0  0  0  0  0
    0.2892    3.7541    0.0000 N   0  0  0  0  0  0  0  0  0  0  0  0
    0.2871    5.2541    0.0000 C   0  0  0  0  0  0  0  0  0  0  0  0
   -6.2093   -2.9992    0.0000 O   0  0  0  0  0  0  0  0  0  0  0  0
  1  2  1  0  0  0  0 
  2  3  2  0  0  0  0 
  3  4  1  0  0  0  0 
  4  5  1  0  0  0  0 
  5  6  1  0  0  0  0 
  6  7  2  0  0  0  0 
  7  8  1  0  0  0  0 
  4  8  2  0  0  0  0 
  8  9  1  0  0  0  0 
  9 10  2  0  0  0  0 
  2 10  1  0  0  0  0 
  7 11  1  0  0  0  0 
 11 12  2  0  0  0  0 
 12 13  1  0  0  0  0 
 13 14  2  0  0  0  0 
 14 15  1  0  0  0  0 
 15 16  2  0  0  0  0 
 16 17  1  0  0  0  0 
 17 18  2  0  0  0  0 
 13 18  1  0  0  0  0 
  1 19  1  0  0  0  0 
 19 20  2  0  0  0  0 
 20 21  1  0  0  0  0 
 21 22  2  0  0  0  0 
 22 23  1  0  0  0  0 
 23 24  2  0  0  0  0 
 19 24  1  0  0  0  0 
 20 25  1  0  0  0  0 
 25 26  2  0  0  0  0 
 25 27  1  0  0  0  0 
 27 28  1  0  0  0  0 
  9 29  1  0  0  0  0 
M  END
> <InChI>
InChI=1S/C22H18N4O2S/c1-23-22(28)16-7-2-3-8-20(16)29-15-12-18-21(19(27)13-15)17(25-26-18)10-9-14-6-4-5-11-24-14/h2-13,27H,1H3,(H,23,28)(H,25,26)/b10-9+

> <InChIKey>
FEUKBMNUKWGTLH-MDZDMXLPSA-N

> <SMILES>
S(C1=CC=2NN=C(C2C(=C1)O)/C=C/C3=NC=CC=C3)C4=C(C=CC=C4)C(=O)NC

> <Synonyms>


> <PUBCHEM_CID>


> <Molecular_formula>
C22H18N4O2S

> <Major_Isotope_Mass>
402.11504681599996

> <ALogP>
4.379800000000001

> <Lipinski_Violations>
0

> <Insecticide_Likeness_Violations>
1

> <Post_Em_Herbicide_Likeness_Violations>
1

> <Metabolite_ID>
BTM00008

> <Reaction>
Aromatic hydroxylation of fused benzene ring

> <Reaction_ID>
BTMR1032

> <Enzyme(s)>
CYP1A2
CYP2C8
CYP2C9
CYP2C19
CYP2D6
CYP3A4

> <Biosystem>
HUMAN

> <Precursor_ID>
TEST0069_axitinib

> <Precursor_SMILES>
S(C1=CC=2NN=C(C2C=C1)/C=C/C3=NC=CC=C3)C4=C(C=CC=C4)C(=O)NC

> <Precursor_InChI>
InChI=1S/C22H18N4OS/c1-23-22(27)18-7-2-3-8-21(18)28-16-10-11-17-19(25-26-20(17)14-16)12-9-15-6-4-5-13-24-15/h2-14H,1H3,(H,23,27)(H,25,26)/b12-9+

> <Precursor_InChIKey>
RITAVMQDGBJQJZ-FMIVXFBMSA-N

> <Precursor_ALogP>
4.647199

> <Precursor_Major_Isotope_Mass>
386.1201

$$$$
BTM00009
  CDK     07192412422D

 29 33  0  0  0  0  0  0  0  0999 V2000
   -3.6089    1.5002    0.0000 S   0  0  0  0  0  0  0  0  0  0  0  0
   -2.3100    0.7500    0.0000 C   0  0  0  0  0  0  0  0  0  0  0  0
   -1.0100    1.5000    0.0000 C   0  0  0  0  0  0  0  0  0  0  0  0
    0.2900    0.7500    0.0000 C   0  0  0  0  0  0  0  0  0  0  0  0
    1.7200    1.2100    0.0000 N   0  0  0  0  0  0  0  0  0  0  0  0
    2.6000    0.0000    0.0000 N   0  0  0  0  0  0  0  0  0  0  0  0
    1.7200   -1.2100    0.0000 C   0  0  0  0  0  0  0  0  0  0  0  0
    0.2900   -0.7500    0.0000 C   0  0  0  0  0  0  0  0  0  0  0  0
   -1.0100   -1.5000    0.0000 C   0  0  0  0  0  0  0  0  0  0  0  0
   -2.3100   -0.7500    0.0000 C   0  0  0  0  0  0  0  0  0  0  0  0
    2.1853   -2.6360    0.0000 C   0  0  0  0  0  0  0  0  0  0  0  0
    3.6529   -2.9461    0.0000 C   0  0  0  0  0  0  0  0  0  0  0  0
    4.1182   -4.3721    0.0000 C   0  0  0  0  0  0  0  0  0  0  0  0
    3.1155   -5.4888    0.0000 N   0  0  0  0  0  0  0  0  0  0  0  0
    3.5803   -6.9159    0.0000 C   0  0  0  0  0  0  0  0  0  0  0  0
    5.0479   -7.2262    0.0000 C   0  0  0  0  0  0  0  0  0  0  0  0
    6.0506   -6.1094    0.0000 C   0  0  0  0  0  0  0  0  0  0  0  0
    5.5857   -4.6824    0.0000 C   0  0  0  0  0  0  0  0  0  0  0  0
   -3.6087    3.0002    0.0000 C   0  0  0  0  0  0  0  0  0  0  0  0
   -4.9082    3.7510    0.0000 C   0  0  0  0  0  0  0  0  0  0  0  0
   -4.9087    5.2519    0.0000 C   0  0  0  0  0  0  0  0  0  0  0  0
   -3.6096    6.0019    0.0000 C   0  0  0  0  0  0  0  0  0  0  0  0
   -2.3101    5.2510    0.0000 C   0  0  0  0  0  0  0  0  0  0  0  0
   -2.3096    3.7502    0.0000 C   0  0  0  0  0  0  0  0  0  0  0  0
   -6.2072    3.0010    0.0000 C   0  0  0  0  0  0  0  0  0  0  0  0
   -6.2072    1.5010    0.0000 O   0  0  0  0  0  0  0  0  0  0  0  0
   -7.5063    3.7510    0.0000 N   0  0  0  0  0  0  0  0  0  0  0  0
   -8.8053    3.0010    0.0000 C   0  0  0  0  0  0  0  0  0  0  0  0
   -4.9092    6.7527    0.0000 O   0  0  0  0  0  0  0  0  0  0  0  0
  1  2  1  0  0  0  0 
  2  3  2  0  0  0  0 
  3  4  1  0  0  0  0 
  4  5  1  0  0  0  0 
  5  6  1  0  0  0  0 
  6  7  2  0  0  0  0 
  7  8  1  0  0  0  0 
  4  8  2  0  0  0  0 
  8  9  1  0  0  0  0 
  9 10  2  0  0  0  0 
  2 10  1  0  0  0  0 
  7 11  1  0  0  0  0 
 11 12  2  0  0  0  0 
 12 13  1  0  0  0  0 
 13 14  2  0  0  0  0 
 14 15  1  0  0  0  0 
 15 16  2  0  0  0  0 
 16 17  1  0  0  0  0 
 17 18  2  0  0  0  0 
 13 18  1  0  0  0  0 
  1 19  1  0  0  0  0 
 19 20  2  0  0  0  0 
 20 21  1  0  0  0  0 
 21 22  1  0  0  0  0 
 22 23  1  0  0  0  0 
 23 24  2  0  0  0  0 
 19 24  1  0  0  0  0 
 20 25  1  0  0  0  0 
 25 26  2  0  0  0  0 
 25 27  1  0  0  0  0 
 27 28  1  0  0  0  0 
 21 29  1  0  0  0  0 
 29 22  1  0  0  0  0 
M  END
> <InChI>
InChI=1S/C22H18N4O2S/c1-23-22(27)20-19(10-9-18-21(20)28-18)29-14-6-7-15-16(25-26-17(15)12-14)8-5-13-4-2-3-11-24-13/h2-12,18,21H,1H3,(H,23,27)(H,25,26)/b8-5+

> <InChIKey>
NPFPKXWHLNIOET-VMPITWQZSA-N

> <SMILES>
S(C1=CC=2NN=C(C2C=C1)/C=C/C3=NC=CC=C3)C4=C(C5C(C=C4)O5)C(=O)NC

> <Synonyms>


> <PUBCHEM_CID>


> <Molecular_formula>
C22H18N4O2S

> <Major_Isotope_Mass>
402.115046816

> <ALogP>
3.025699999999998

> <Lipinski_Violations>
0

> <Insecticide_Likeness_Violations>
0

> <Post_Em_Herbicide_Likeness_Violations>
0

> <Metabolite_ID>
BTM00009

> <Reaction>
Epoxidation of arene

> <Reaction_ID>
BTMR1028

> <Enzyme(s)>
CYP1A2
CYP2C8
CYP2C9
CYP2C19
CYP3A4

> <Biosystem>
HUMAN

> <Precursor_ID>
TEST0069_axitinib

> <Precursor_SMILES>
S(C1=CC=2NN=C(C2C=C1)/C=C/C3=NC=CC=C3)C4=C(C=CC=C4)C(=O)NC

> <Precursor_InChI>
InChI=1S/C22H18N4OS/c1-23-22(27)18-7-2-3-8-21(18)28-16-10-11-17-19(25-26-20(17)14-16)12-9-15-6-4-5-13-24-15/h2-14H,1H3,(H,23,27)(H,25,26)/b12-9+

> <Precursor_InChIKey>
RITAVMQDGBJQJZ-FMIVXFBMSA-N

> <Precursor_ALogP>
4.647199

> <Precursor_Major_Isotope_Mass>
386.1201

$$$$
