BTM00001
  CDK     07192412402D

 23 22  0  0  0  0  0  0  0  0999 V2000
    5.1153   -1.6591    0.0000 F   0  0  0  0  0  0  0  0  0  0  0  0
    6.0795   -0.5100    0.0000 C   0  0  0  0  0  0  0  0  0  0  0  0
    7.0437   -1.6591    0.0000 F   0  0  0  0  0  0  0  0  0  0  0  0
    4.7805    0.2400    0.0000 C   0  0  0  0  0  0  0  0  0  0  0  0
    5.7446    1.3891    0.0000 F   0  0  0  0  0  0  0  0  0  0  0  0
    3.8163    1.3891    0.0000 F   0  0  0  0  0  0  0  0  0  0  0  0
    3.0657   -0.7500    0.0000 C   0  0  0  0  0  0  0  0  0  0  0  0
    2.1015   -1.8991    0.0000 F   0  0  0  0  0  0  0  0  0  0  0  0
    4.0299   -1.8991    0.0000 F   0  0  0  0  0  0  0  0  0  0  0  0
    1.7667    0.0000    0.0000 C   0  0  0  0  0  0  0  0  0  0  0  0
    0.4677   -0.7500    0.0000 C   0  0  0  0  0  0  0  0  0  0  0  0
   -0.8314    0.0000    0.0000 O   0  0  0  0  0  0  0  0  0  0  0  0
    7.7942    0.4800    0.0000 C   0  0  0  0  0  0  0  0  0  0  0  0
    8.7584    1.6291    0.0000 F   0  0  0  0  0  0  0  0  0  0  0  0
    6.8300    1.6291    0.0000 F   0  0  0  0  0  0  0  0  0  0  0  0
    9.5090   -0.5100    0.0000 C   0  0  0  0  0  0  0  0  0  0  0  0
    8.5448   -1.6591    0.0000 F   0  0  0  0  0  0  0  0  0  0  0  0
   10.4731   -1.6591    0.0000 F   0  0  0  0  0  0  0  0  0  0  0  0
   10.8080    0.2400    0.0000 C   0  0  0  0  0  0  0  0  0  0  0  0
   10.8080    1.7400    0.0000 F   0  0  0  0  0  0  0  0  0  0  0  0
   12.2852    0.5005    0.0000 F   0  0  0  0  0  0  0  0  0  0  0  0
   11.3210   -1.1695    0.0000 F   0  0  0  0  0  0  0  0  0  0  0  0
    1.7667    1.5000    0.0000 O   0  0  0  0  0  0  0  0  0  0  0  0
  1  2  1  0  0  0  0 
  2  3  1  0  0  0  0 
  2  4  1  0  0  0  0 
  4  5  1  0  0  0  0 
  4  6  1  0  0  0  0 
  4  7  1  0  0  0  0 
  7  8  1  0  0  0  0 
  7  9  1  0  0  0  0 
  7 10  1  0  0  0  0 
 10 11  1  0  0  0  0 
 11 12  1  0  0  0  0 
  2 13  1  0  0  0  0 
 13 14  1  0  0  0  0 
 13 15  1  0  0  0  0 
 13 16  1  0  0  0  0 
 16 17  1  0  0  0  0 
 16 18  1  0  0  0  0 
 16 19  1  0  0  0  0 
 19 20  1  0  0  0  0 
 19 21  1  0  0  0  0 
 19 22  1  0  0  0  0 
 23 10  1  0  0  0  0 
M  END
> <InChI>
InChI=1S/C8H5F13O2/c9-3(10,2(23)1-22)4(11,12)5(13,14)6(15,16)7(17,18)8(19,20)21/h2,22-23H,1H2

> <InChIKey>
OCFQEBCFMDZJGI-UHFFFAOYSA-N

> <SMILES>
FC(F)(C(F)(F)C(F)(F)C(CO)O)C(F)(F)C(F)(F)C(F)(F)F

> <Synonyms>


> <PUBCHEM_CID>


> <Molecular_formula>
C8H5F13O2

> <Major_Isotope_Mass>
380.00819626000003

> <ALogP>
2.5967000000000002

> <Lipinski_Violations>
0

> <Insecticide_Likeness_Violations>
0

> <Post_Em_Herbicide_Likeness_Violations>
0

> <Metabolite_ID>
BTM00001

> <Reaction>
Hydroxylation of acyclic aliphatic secondary carbon

> <Reaction_ID>
BTMR1063

> <Enzyme(s)>
CYP3A4

> <Biosystem>
HUMAN

> <Precursor_ID>
TEST0040_6:2 FTOH

> <Precursor_SMILES>
FC(F)(C(F)(F)C(F)(F)CCO)C(F)(F)C(F)(F)C(F)(F)F

> <Precursor_InChI>
InChI=1S/C8H5F13O/c9-3(10,1-2-22)4(11,12)5(13,14)6(15,16)7(17,18)8(19,20)21/h22H,1-2H2

> <Precursor_InChIKey>
GRJRKPMIRMSBNK-UHFFFAOYSA-N

> <Precursor_ALogP>
2.8194

> <Precursor_Major_Isotope_Mass>
364.0132

$$$$
BTM00002
  CDK     07192412402D

 22 21  0  0  0  0  0  0  0  0999 V2000
    8.0893   -3.0580    0.0000 F   0  0  0  0  0  0  0  0  0  0  0  0
    6.6121   -2.7975    0.0000 C   0  0  0  0  0  0  0  0  0  0  0  0
    7.1251   -1.3880    0.0000 F   0  0  0  0  0  0  0  0  0  0  0  0
    6.6121   -4.2975    0.0000 C   0  0  0  0  0  0  0  0  0  0  0  0
    5.1349   -4.0370    0.0000 F   0  0  0  0  0  0  0  0  0  0  0  0
    6.0991   -5.7070    0.0000 F   0  0  0  0  0  0  0  0  0  0  0  0
    7.9111   -5.0475    0.0000 C   0  0  0  0  0  0  0  0  0  0  0  0
    8.8753   -6.1966    0.0000 F   0  0  0  0  0  0  0  0  0  0  0  0
    6.9470   -6.1966    0.0000 F   0  0  0  0  0  0  0  0  0  0  0  0
    9.2102   -4.2975    0.0000 C   0  0  0  0  0  0  0  0  0  0  0  0
   10.5092   -5.0475    0.0000 C   0  0  0  0  0  0  0  0  0  0  0  0
   11.8083   -4.2975    0.0000 O   0  0  0  0  0  0  0  0  0  0  0  0
    4.8974   -1.8075    0.0000 C   0  0  0  0  0  0  0  0  0  0  0  0
    3.4202   -1.5470    0.0000 F   0  0  0  0  0  0  0  0  0  0  0  0
    4.3843   -3.2170    0.0000 F   0  0  0  0  0  0  0  0  0  0  0  0
    4.8974    0.1725    0.0000 C   0  0  0  0  0  0  0  0  0  0  0  0
    6.3746   -0.0880    0.0000 F   0  0  0  0  0  0  0  0  0  0  0  0
    5.4104    1.5820    0.0000 F   0  0  0  0  0  0  0  0  0  0  0  0
    3.5983    0.9225    0.0000 C   0  0  0  0  0  0  0  0  0  0  0  0
    2.2993    0.1725    0.0000 F   0  0  0  0  0  0  0  0  0  0  0  0
    2.6342    2.0716    0.0000 F   0  0  0  0  0  0  0  0  0  0  0  0
    4.5625    2.0716    0.0000 F   0  0  0  0  0  0  0  0  0  0  0  0
  1  2  1  0  0  0  0 
  2  3  1  0  0  0  0 
  2  4  1  0  0  0  0 
  4  5  1  0  0  0  0 
  4  6  1  0  0  0  0 
  4  7  1  0  0  0  0 
  7  8  1  0  0  0  0 
  7  9  1  0  0  0  0 
  7 10  1  0  0  0  0 
 10 11  1  0  0  0  0 
 11 12  2  0  0  0  0 
  2 13  1  0  0  0  0 
 13 14  1  0  0  0  0 
 13 15  1  0  0  0  0 
 13 16  1  0  0  0  0 
 16 17  1  0  0  0  0 
 16 18  1  0  0  0  0 
 16 19  1  0  0  0  0 
 19 20  1  0  0  0  0 
 19 21  1  0  0  0  0 
 19 22  1  0  0  0  0 
M  END
> <InChI>
InChI=1S/C8H3F13O/c9-3(10,1-2-22)4(11,12)5(13,14)6(15,16)7(17,18)8(19,20)21/h2H,1H2

> <InChIKey>
WJSFZGPTEQNWCB-UHFFFAOYSA-N

> <SMILES>
FC(F)(C(F)(F)C(F)(F)CC=O)C(F)(F)C(F)(F)C(F)(F)F

> <Synonyms>


> <PUBCHEM_CID>


> <Molecular_formula>
C8H3F13O

> <Major_Isotope_Mass>
361.997631576

> <ALogP>
3.3985

> <Lipinski_Violations>
1

> <Insecticide_Likeness_Violations>
0

> <Post_Em_Herbicide_Likeness_Violations>
0

> <Metabolite_ID>
BTM00002

> <Reaction>
Oxidation of primary alcohol to aldehyde

> <Reaction_ID>
BTMR0105

> <Enzyme(s)>
CYP3A4

> <Biosystem>
HUMAN

> <Precursor_ID>
TEST0040_6:2 FTOH

> <Precursor_SMILES>
FC(F)(C(F)(F)C(F)(F)CCO)C(F)(F)C(F)(F)C(F)(F)F

> <Precursor_InChI>
InChI=1S/C8H5F13O/c9-3(10,1-2-22)4(11,12)5(13,14)6(15,16)7(17,18)8(19,20)21/h22H,1-2H2

> <Precursor_InChIKey>
GRJRKPMIRMSBNK-UHFFFAOYSA-N

> <Precursor_ALogP>
2.8194

> <Precursor_Major_Isotope_Mass>
364.0132

$$$$
