BTM00001
  CDK     07192412402D

 22 23  0  0  0  0  0  0  0  0999 V2000
   -0.9742   -8.0637    0.0000 O   0  0  0  0  0  0  0  0  0  0  0  0
   -0.9746   -6.5637    0.0000 C   0  0  0  0  0  0  0  0  0  0  0  0
   -2.2738   -5.8140    0.0000 C   0  0  0  0  0  0  0  0  0  0  0  0
   -2.2736   -4.3131    0.0000 C   0  0  0  0  0  0  0  0  0  0  0  0
   -3.5727   -3.5633    0.0000 C   0  0  0  0  0  0  0  0  0  0  0  0
   -3.5730   -2.0633    0.0000 C   0  0  0  0  0  0  0  0  0  0  0  0
   -4.8720   -1.3133    0.0000 C   0  0  0  0  0  0  0  0  0  0  0  0
   -4.8715    0.1875    0.0000 N   0  0  0  0  0  0  0  0  0  0  0  0
   -3.5720    0.9383    0.0000 C   0  0  0  0  0  0  0  0  0  0  0  0
   -2.2730    0.1883    0.0000 N   0  0  0  0  0  0  0  0  0  0  0  0
   -2.2734   -1.3125    0.0000 C   0  0  0  0  0  0  0  0  0  0  0  0
   -3.5722    2.4383    0.0000 N   0  0  0  0  0  0  0  0  0  0  0  0
   -6.1712   -2.0631    0.0000 N   0  0  0  0  0  0  0  0  0  0  0  0
   -0.9742   -3.5621    0.0000 C   0  0  0  0  0  0  0  0  0  0  0  0
    0.3250   -4.3119    0.0000 C   0  0  0  0  0  0  0  0  0  0  0  0
    1.6240   -3.5619    0.0000 O   0  0  0  0  0  0  0  0  0  0  0  0
    2.9231   -4.3119    0.0000 C   0  0  0  0  0  0  0  0  0  0  0  0
    0.3248   -5.8127    0.0000 C   0  0  0  0  0  0  0  0  0  0  0  0
    1.6239   -6.5625    0.0000 O   0  0  0  0  0  0  0  0  0  0  0  0
    1.6242   -8.0625    0.0000 C   0  0  0  0  0  0  0  0  0  0  0  0
    0.3251   -8.8133    0.0000 C   0  0  0  0  0  0  0  0  0  0  0  0
   -4.8716   -4.3135    0.0000 O   0  0  0  0  0  0  0  0  0  0  0  0
  1  2  1  0  0  0  0 
  2  3  2  0  0  0  0 
  3  4  1  0  0  0  0 
  4  5  1  0  0  0  0 
  5  6  1  0  0  0  0 
  6  7  1  0  0  0  0 
  7  8  2  0  0  0  0 
  8  9  1  0  0  0  0 
  9 10  2  0  0  0  0 
 10 11  1  0  0  0  0 
  6 11  2  0  0  0  0 
  9 12  1  0  0  0  0 
  7 13  1  0  0  0  0 
  4 14  2  0  0  0  0 
 14 15  1  0  0  0  0 
 15 16  1  0  0  0  0 
 16 17  1  0  0  0  0 
 15 18  2  0  0  0  0 
  2 18  1  0  0  0  0 
 18 19  1  0  0  0  0 
 19 20  1  0  0  0  0 
  1 21  1  0  0  0  0 
 22  5  1  0  0  0  0 
M  END
> <InChI>
InChI=1S/C14H18N4O4/c1-20-9-4-7(5-10(21-2)12(9)22-3)11(19)8-6-17-14(16)18-13(8)15/h4-6,11,19H,1-3H3,(H4,15,16,17,18)

> <InChIKey>
ZQRSRBQVQNNQKD-UHFFFAOYSA-N

> <SMILES>
O(C1=CC(C(C=2C(=NC(=NC2)N)N)O)=CC(OC)=C1OC)C

> <Synonyms>


> <PUBCHEM_CID>


> <Molecular_formula>
C14H18N4O4

> <Major_Isotope_Mass>
306.132805056

> <ALogP>
0.8314999999999984

> <Lipinski_Violations>
0

> <Insecticide_Likeness_Violations>
1

> <Post_Em_Herbicide_Likeness_Violations>
1

> <Metabolite_ID>
BTM00001

> <Reaction>
Hydroxylation of non-terminal aliphatic carbon adjacent to aromatic ring

> <Reaction_ID>
BTMR1077

> <Enzyme(s)>
CYP1A2
CYP2C8
CYP2C9
CYP2D6
CYP3A4

> <Biosystem>
HUMAN

> <Precursor_ID>
TEST0046_Trimethoprim

> <Precursor_SMILES>
O(C1=CC(CC=2C(=NC(=NC2)N)N)=CC(OC)=C1OC)C

> <Precursor_InChI>
InChI=1S/C14H18N4O3/c1-19-10-5-8(6-11(20-2)12(10)21-3)4-9-7-17-14(16)18-13(9)15/h5-7H,4H2,1-3H3,(H4,15,16,17,18)

> <Precursor_InChIKey>
IEDVJHCEMCRBQM-UHFFFAOYSA-N

> <Precursor_ALogP>
1.573499

> <Precursor_Major_Isotope_Mass>
290.1378

$$$$
BTM00002
  CDK     07192412402D

 20 21  0  0  0  0  0  0  0  0999 V2000
    2.9239   -5.4380    0.0000 O   0  0  0  0  0  0  0  0  0  0  0  0
    1.6246   -4.6884    0.0000 C   0  0  0  0  0  0  0  0  0  0  0  0
    0.3257   -5.4386    0.0000 C   0  0  0  0  0  0  0  0  0  0  0  0
   -0.9740   -4.6880    0.0000 C   0  0  0  0  0  0  0  0  0  0  0  0
   -2.2729   -5.4382    0.0000 C   0  0  0  0  0  0  0  0  0  0  0  0
   -3.5721   -4.6884    0.0000 C   0  0  0  0  0  0  0  0  0  0  0  0
   -4.8711   -5.4384    0.0000 C   0  0  0  0  0  0  0  0  0  0  0  0
   -6.1706   -4.6876    0.0000 N   0  0  0  0  0  0  0  0  0  0  0  0
   -6.1711   -3.1868    0.0000 C   0  0  0  0  0  0  0  0  0  0  0  0
   -4.8721   -2.4368    0.0000 N   0  0  0  0  0  0  0  0  0  0  0  0
   -3.5725   -3.1876    0.0000 C   0  0  0  0  0  0  0  0  0  0  0  0
   -7.4703   -2.4370    0.0000 N   0  0  0  0  0  0  0  0  0  0  0  0
   -4.8713   -6.9384    0.0000 N   0  0  0  0  0  0  0  0  0  0  0  0
   -0.9747   -3.1872    0.0000 C   0  0  0  0  0  0  0  0  0  0  0  0
    0.3242   -2.4370    0.0000 C   0  0  0  0  0  0  0  0  0  0  0  0
    0.3242   -0.9370    0.0000 O   0  0  0  0  0  0  0  0  0  0  0  0
    1.6233   -0.1870    0.0000 C   0  0  0  0  0  0  0  0  0  0  0  0
    1.6239   -3.1876    0.0000 C   0  0  0  0  0  0  0  0  0  0  0  0
    2.9228   -2.4374    0.0000 O   0  0  0  0  0  0  0  0  0  0  0  0
    4.2219   -3.1872    0.0000 C   0  0  0  0  0  0  0  0  0  0  0  0
  1  2  1  0  0  0  0 
  2  3  2  0  0  0  0 
  3  4  1  0  0  0  0 
  4  5  1  0  0  0  0 
  5  6  1  0  0  0  0 
  6  7  1  0  0  0  0 
  7  8  2  0  0  0  0 
  8  9  1  0  0  0  0 
  9 10  2  0  0  0  0 
 10 11  1  0  0  0  0 
  6 11  2  0  0  0  0 
  9 12  1  0  0  0  0 
  7 13  1  0  0  0  0 
  4 14  2  0  0  0  0 
 14 15  1  0  0  0  0 
 15 16  1  0  0  0  0 
 16 17  1  0  0  0  0 
 15 18  2  0  0  0  0 
  2 18  1  0  0  0  0 
 18 19  1  0  0  0  0 
 19 20  1  0  0  0  0 
M  END
> <InChI>
InChI=1S/C13H16N4O3/c1-19-10-5-7(4-9(18)11(10)20-2)3-8-6-16-13(15)17-12(8)14/h4-6,18H,3H2,1-2H3,(H4,14,15,16,17)

> <InChIKey>
HWBPOLWLLFXEJY-UHFFFAOYSA-N

> <SMILES>
OC1=CC(CC=2C(=NC(=NC2)N)N)=CC(OC)=C1OC

> <Synonyms>


> <PUBCHEM_CID>


> <Molecular_formula>
C13H16N4O3

> <Major_Isotope_Mass>
276.12224037199996

> <ALogP>
1.5473999999999992

> <Lipinski_Violations>
0

> <Insecticide_Likeness_Violations>
1

> <Post_Em_Herbicide_Likeness_Violations>
1

> <Metabolite_ID>
BTM00002

> <Reaction>
O-Dealkylation

> <Reaction_ID>
BTMR0052

> <Enzyme(s)>
CYP1A2
CYP2C9
CYP2C19
CYP2D6
CYP2E1
CYP3A4

> <Biosystem>
HUMAN

> <Precursor_ID>
TEST0046_Trimethoprim

> <Precursor_SMILES>
O(C1=CC(CC=2C(=NC(=NC2)N)N)=CC(OC)=C1OC)C

> <Precursor_InChI>
InChI=1S/C14H18N4O3/c1-19-10-5-8(6-11(20-2)12(10)21-3)4-9-7-17-14(16)18-13(9)15/h5-7H,4H2,1-3H3,(H4,15,16,17,18)

> <Precursor_InChIKey>
IEDVJHCEMCRBQM-UHFFFAOYSA-N

> <Precursor_ALogP>
1.573499

> <Precursor_Major_Isotope_Mass>
290.1378

$$$$
BTM00003
  CDK     07192412402D

 20 21  0  0  0  0  0  0  0  0999 V2000
   -5.8466   -1.1248    0.0000 O   0  0  0  0  0  0  0  0  0  0  0  0
   -4.5474   -1.8744    0.0000 C   0  0  0  0  0  0  0  0  0  0  0  0
   -3.2484   -1.1242    0.0000 C   0  0  0  0  0  0  0  0  0  0  0  0
   -1.9488   -1.8748    0.0000 C   0  0  0  0  0  0  0  0  0  0  0  0
   -0.6499   -1.1246    0.0000 C   0  0  0  0  0  0  0  0  0  0  0  0
    0.6493   -1.8744    0.0000 C   0  0  0  0  0  0  0  0  0  0  0  0
    1.9483   -1.1244    0.0000 C   0  0  0  0  0  0  0  0  0  0  0  0
    3.2478   -1.8752    0.0000 N   0  0  0  0  0  0  0  0  0  0  0  0
    3.2483   -3.3760    0.0000 C   0  0  0  0  0  0  0  0  0  0  0  0
    1.9493   -4.1260    0.0000 N   0  0  0  0  0  0  0  0  0  0  0  0
    0.6498   -3.3752    0.0000 C   0  0  0  0  0  0  0  0  0  0  0  0
    4.5475   -4.1258    0.0000 N   0  0  0  0  0  0  0  0  0  0  0  0
    1.9486    0.3756    0.0000 N   0  0  0  0  0  0  0  0  0  0  0  0
   -1.9481   -3.3756    0.0000 C   0  0  0  0  0  0  0  0  0  0  0  0
   -3.2470   -4.1258    0.0000 C   0  0  0  0  0  0  0  0  0  0  0  0
   -3.2470   -5.6258    0.0000 O   0  0  0  0  0  0  0  0  0  0  0  0
   -4.5460   -6.3758    0.0000 C   0  0  0  0  0  0  0  0  0  0  0  0
   -4.5466   -3.3752    0.0000 C   0  0  0  0  0  0  0  0  0  0  0  0
   -5.8456   -4.1254    0.0000 O   0  0  0  0  0  0  0  0  0  0  0  0
   -7.1454   -1.8752    0.0000 C   0  0  0  0  0  0  0  0  0  0  0  0
  1  2  1  0  0  0  0 
  2  3  2  0  0  0  0 
  3  4  1  0  0  0  0 
  4  5  1  0  0  0  0 
  5  6  1  0  0  0  0 
  6  7  1  0  0  0  0 
  7  8  2  0  0  0  0 
  8  9  1  0  0  0  0 
  9 10  2  0  0  0  0 
 10 11  1  0  0  0  0 
  6 11  2  0  0  0  0 
  9 12  1  0  0  0  0 
  7 13  1  0  0  0  0 
  4 14  2  0  0  0  0 
 14 15  1  0  0  0  0 
 15 16  1  0  0  0  0 
 16 17  1  0  0  0  0 
 15 18  2  0  0  0  0 
  2 18  1  0  0  0  0 
 18 19  1  0  0  0  0 
  1 20  1  0  0  0  0 
M  END
> <InChI>
InChI=1S/C13H16N4O3/c1-19-9-4-7(5-10(20-2)11(9)18)3-8-6-16-13(15)17-12(8)14/h4-6,18H,3H2,1-2H3,(H4,14,15,16,17)

> <InChIKey>
HPOCGNHBIFZCAN-UHFFFAOYSA-N

> <SMILES>
O(C1=CC(CC=2C(=NC(=NC2)N)N)=CC(OC)=C1O)C

> <Synonyms>


> <PUBCHEM_CID>


> <Molecular_formula>
C13H16N4O3

> <Major_Isotope_Mass>
276.12224037199996

> <ALogP>
1.5473999999999992

> <Lipinski_Violations>
0

> <Insecticide_Likeness_Violations>
1

> <Post_Em_Herbicide_Likeness_Violations>
1

> <Metabolite_ID>
BTM00003

> <Reaction>
O-Dealkylation

> <Reaction_ID>
BTMR0052

> <Enzyme(s)>
CYP1A2
CYP2C9
CYP2C19
CYP2D6
CYP2E1
CYP3A4

> <Biosystem>
HUMAN

> <Precursor_ID>
TEST0046_Trimethoprim

> <Precursor_SMILES>
O(C1=CC(CC=2C(=NC(=NC2)N)N)=CC(OC)=C1OC)C

> <Precursor_InChI>
InChI=1S/C14H18N4O3/c1-19-10-5-8(6-11(20-2)12(10)21-3)4-9-7-17-14(16)18-13(9)15/h5-7H,4H2,1-3H3,(H4,15,16,17,18)

> <Precursor_InChIKey>
IEDVJHCEMCRBQM-UHFFFAOYSA-N

> <Precursor_ALogP>
1.573499

> <Precursor_Major_Isotope_Mass>
290.1378

$$$$
BTM00002
  CDK     07192412402D

 20 21  0  0  0  0  0  0  0  0999 V2000
    2.9239   -5.4380    0.0000 O   0  0  0  0  0  0  0  0  0  0  0  0
    1.6246   -4.6884    0.0000 C   0  0  0  0  0  0  0  0  0  0  0  0
    0.3257   -5.4386    0.0000 C   0  0  0  0  0  0  0  0  0  0  0  0
   -0.9740   -4.6880    0.0000 C   0  0  0  0  0  0  0  0  0  0  0  0
   -2.2729   -5.4382    0.0000 C   0  0  0  0  0  0  0  0  0  0  0  0
   -3.5721   -4.6884    0.0000 C   0  0  0  0  0  0  0  0  0  0  0  0
   -4.8711   -5.4384    0.0000 C   0  0  0  0  0  0  0  0  0  0  0  0
   -6.1706   -4.6876    0.0000 N   0  0  0  0  0  0  0  0  0  0  0  0
   -6.1711   -3.1868    0.0000 C   0  0  0  0  0  0  0  0  0  0  0  0
   -4.8721   -2.4368    0.0000 N   0  0  0  0  0  0  0  0  0  0  0  0
   -3.5725   -3.1876    0.0000 C   0  0  0  0  0  0  0  0  0  0  0  0
   -7.4703   -2.4370    0.0000 N   0  0  0  0  0  0  0  0  0  0  0  0
   -4.8713   -6.9384    0.0000 N   0  0  0  0  0  0  0  0  0  0  0  0
   -0.9747   -3.1872    0.0000 C   0  0  0  0  0  0  0  0  0  0  0  0
    0.3242   -2.4370    0.0000 C   0  0  0  0  0  0  0  0  0  0  0  0
    0.3242   -0.9370    0.0000 O   0  0  0  0  0  0  0  0  0  0  0  0
    1.6233   -0.1870    0.0000 C   0  0  0  0  0  0  0  0  0  0  0  0
    1.6239   -3.1876    0.0000 C   0  0  0  0  0  0  0  0  0  0  0  0
    2.9228   -2.4374    0.0000 O   0  0  0  0  0  0  0  0  0  0  0  0
    4.2219   -3.1872    0.0000 C   0  0  0  0  0  0  0  0  0  0  0  0
  1  2  1  0  0  0  0 
  2  3  2  0  0  0  0 
  3  4  1  0  0  0  0 
  4  5  1  0  0  0  0 
  5  6  1  0  0  0  0 
  6  7  1  0  0  0  0 
  7  8  2  0  0  0  0 
  8  9  1  0  0  0  0 
  9 10  2  0  0  0  0 
 10 11  1  0  0  0  0 
  6 11  2  0  0  0  0 
  9 12  1  0  0  0  0 
  7 13  1  0  0  0  0 
  4 14  2  0  0  0  0 
 14 15  1  0  0  0  0 
 15 16  1  0  0  0  0 
 16 17  1  0  0  0  0 
 15 18  2  0  0  0  0 
  2 18  1  0  0  0  0 
 18 19  1  0  0  0  0 
 19 20  1  0  0  0  0 
M  END
> <InChI>
InChI=1S/C13H16N4O3/c1-19-10-5-7(4-9(18)11(10)20-2)3-8-6-16-13(15)17-12(8)14/h4-6,18H,3H2,1-2H3,(H4,14,15,16,17)

> <InChIKey>
HWBPOLWLLFXEJY-UHFFFAOYSA-N

> <SMILES>
OC1=CC(CC=2C(=NC(=NC2)N)N)=CC(OC)=C1OC

> <Synonyms>


> <PUBCHEM_CID>


> <Molecular_formula>
C13H16N4O3

> <Major_Isotope_Mass>
276.12224037199996

> <ALogP>
1.5473999999999992

> <Lipinski_Violations>
0

> <Insecticide_Likeness_Violations>
1

> <Post_Em_Herbicide_Likeness_Violations>
1

> <Metabolite_ID>
BTM00002

> <Reaction>
O-Aryl dealkylation adjacent to substituted carbon

> <Reaction_ID>
BTMR1131

> <Enzyme(s)>
CYP1A2
CYP2C8
CYP2C9
CYP2D6
CYP2E1
CYP3A4

> <Biosystem>
HUMAN

> <Precursor_ID>
TEST0046_Trimethoprim

> <Precursor_SMILES>
O(C1=CC(CC=2C(=NC(=NC2)N)N)=CC(OC)=C1OC)C

> <Precursor_InChI>
InChI=1S/C14H18N4O3/c1-19-10-5-8(6-11(20-2)12(10)21-3)4-9-7-17-14(16)18-13(9)15/h5-7H,4H2,1-3H3,(H4,15,16,17,18)

> <Precursor_InChIKey>
IEDVJHCEMCRBQM-UHFFFAOYSA-N

> <Precursor_ALogP>
1.573499

> <Precursor_Major_Isotope_Mass>
290.1378

$$$$
BTM00003
  CDK     07192412402D

 20 21  0  0  0  0  0  0  0  0999 V2000
   -5.8466   -1.1248    0.0000 O   0  0  0  0  0  0  0  0  0  0  0  0
   -4.5474   -1.8744    0.0000 C   0  0  0  0  0  0  0  0  0  0  0  0
   -3.2484   -1.1242    0.0000 C   0  0  0  0  0  0  0  0  0  0  0  0
   -1.9488   -1.8748    0.0000 C   0  0  0  0  0  0  0  0  0  0  0  0
   -0.6499   -1.1246    0.0000 C   0  0  0  0  0  0  0  0  0  0  0  0
    0.6493   -1.8744    0.0000 C   0  0  0  0  0  0  0  0  0  0  0  0
    1.9483   -1.1244    0.0000 C   0  0  0  0  0  0  0  0  0  0  0  0
    3.2478   -1.8752    0.0000 N   0  0  0  0  0  0  0  0  0  0  0  0
    3.2483   -3.3760    0.0000 C   0  0  0  0  0  0  0  0  0  0  0  0
    1.9493   -4.1260    0.0000 N   0  0  0  0  0  0  0  0  0  0  0  0
    0.6498   -3.3752    0.0000 C   0  0  0  0  0  0  0  0  0  0  0  0
    4.5475   -4.1258    0.0000 N   0  0  0  0  0  0  0  0  0  0  0  0
    1.9486    0.3756    0.0000 N   0  0  0  0  0  0  0  0  0  0  0  0
   -1.9481   -3.3756    0.0000 C   0  0  0  0  0  0  0  0  0  0  0  0
   -3.2470   -4.1258    0.0000 C   0  0  0  0  0  0  0  0  0  0  0  0
   -3.2470   -5.6258    0.0000 O   0  0  0  0  0  0  0  0  0  0  0  0
   -4.5460   -6.3758    0.0000 C   0  0  0  0  0  0  0  0  0  0  0  0
   -4.5466   -3.3752    0.0000 C   0  0  0  0  0  0  0  0  0  0  0  0
   -5.8456   -4.1254    0.0000 O   0  0  0  0  0  0  0  0  0  0  0  0
   -7.1454   -1.8752    0.0000 C   0  0  0  0  0  0  0  0  0  0  0  0
  1  2  1  0  0  0  0 
  2  3  2  0  0  0  0 
  3  4  1  0  0  0  0 
  4  5  1  0  0  0  0 
  5  6  1  0  0  0  0 
  6  7  1  0  0  0  0 
  7  8  2  0  0  0  0 
  8  9  1  0  0  0  0 
  9 10  2  0  0  0  0 
 10 11  1  0  0  0  0 
  6 11  2  0  0  0  0 
  9 12  1  0  0  0  0 
  7 13  1  0  0  0  0 
  4 14  2  0  0  0  0 
 14 15  1  0  0  0  0 
 15 16  1  0  0  0  0 
 16 17  1  0  0  0  0 
 15 18  2  0  0  0  0 
  2 18  1  0  0  0  0 
 18 19  1  0  0  0  0 
  1 20  1  0  0  0  0 
M  END
> <InChI>
InChI=1S/C13H16N4O3/c1-19-9-4-7(5-10(20-2)11(9)18)3-8-6-16-13(15)17-12(8)14/h4-6,18H,3H2,1-2H3,(H4,14,15,16,17)

> <InChIKey>
HPOCGNHBIFZCAN-UHFFFAOYSA-N

> <SMILES>
O(C1=CC(CC=2C(=NC(=NC2)N)N)=CC(OC)=C1O)C

> <Synonyms>


> <PUBCHEM_CID>


> <Molecular_formula>
C13H16N4O3

> <Major_Isotope_Mass>
276.12224037199996

> <ALogP>
1.5473999999999992

> <Lipinski_Violations>
0

> <Insecticide_Likeness_Violations>
1

> <Post_Em_Herbicide_Likeness_Violations>
1

> <Metabolite_ID>
BTM00003

> <Reaction>
O-Aryl dealkylation adjacent to substituted carbon

> <Reaction_ID>
BTMR1131

> <Enzyme(s)>
CYP1A2
CYP2C8
CYP2C9
CYP2D6
CYP2E1
CYP3A4

> <Biosystem>
HUMAN

> <Precursor_ID>
TEST0046_Trimethoprim

> <Precursor_SMILES>
O(C1=CC(CC=2C(=NC(=NC2)N)N)=CC(OC)=C1OC)C

> <Precursor_InChI>
InChI=1S/C14H18N4O3/c1-19-10-5-8(6-11(20-2)12(10)21-3)4-9-7-17-14(16)18-13(9)15/h5-7H,4H2,1-3H3,(H4,15,16,17,18)

> <Precursor_InChIKey>
IEDVJHCEMCRBQM-UHFFFAOYSA-N

> <Precursor_ALogP>
1.573499

> <Precursor_Major_Isotope_Mass>
290.1378

$$$$
BTM00004
  CDK     07192412402D

 22 23  0  0  0  0  0  0  0  0999 V2000
    3.5734   -4.3130    0.0000 O   0  0  0  0  0  0  0  0  0  0  0  0
    2.2741   -3.5634    0.0000 C   0  0  0  0  0  0  0  0  0  0  0  0
    0.9752   -4.3136    0.0000 C   0  0  0  0  0  0  0  0  0  0  0  0
   -0.3245   -3.5630    0.0000 C   0  0  0  0  0  0  0  0  0  0  0  0
   -1.6234   -4.3132    0.0000 C   0  0  0  0  0  0  0  0  0  0  0  0
   -2.9225   -3.5634    0.0000 C   0  0  0  0  0  0  0  0  0  0  0  0
   -4.2216   -4.3134    0.0000 C   0  0  0  0  0  0  0  0  0  0  0  0
   -5.5211   -3.5626    0.0000 N   0  0  0  0  0  0  0  0  0  0  0  0
   -5.5216   -2.0618    0.0000 C   0  0  0  0  0  0  0  0  0  0  0  0
   -4.2225   -1.3118    0.0000 N   0  0  0  0  0  0  0  0  0  0  0  0
   -2.9230   -2.0626    0.0000 C   0  0  0  0  0  0  0  0  0  0  0  0
   -6.8207   -1.3120    0.0000 N   0  0  0  0  0  0  0  0  0  0  0  0
   -4.2218   -5.8134    0.0000 N   0  0  0  0  0  0  0  0  0  0  0  0
   -0.3252   -2.0622    0.0000 C   0  0  0  0  0  0  0  0  0  0  0  0
    0.9737   -1.3120    0.0000 C   0  0  0  0  0  0  0  0  0  0  0  0
    0.9737    0.1880    0.0000 O   0  0  0  0  0  0  0  0  0  0  0  0
    2.2728    0.9380    0.0000 C   0  0  0  0  0  0  0  0  0  0  0  0
    2.2734   -2.0626    0.0000 C   0  0  0  0  0  0  0  0  0  0  0  0
    3.5723   -1.3124    0.0000 O   0  0  0  0  0  0  0  0  0  0  0  0
    4.8715   -2.0622    0.0000 C   0  0  0  0  0  0  0  0  0  0  0  0
    4.8722   -3.5626    0.0000 C   0  0  0  0  0  0  0  0  0  0  0  0
   -5.5210   -6.5632    0.0000 O   0  0  0  0  0  0  0  0  0  0  0  0
  1  2  1  0  0  0  0 
  2  3  2  0  0  0  0 
  3  4  1  0  0  0  0 
  4  5  1  0  0  0  0 
  5  6  1  0  0  0  0 
  6  7  1  0  0  0  0 
  7  8  2  0  0  0  0 
  8  9  1  0  0  0  0 
  9 10  2  0  0  0  0 
 10 11  1  0  0  0  0 
  6 11  2  0  0  0  0 
  9 12  1  0  0  0  0 
  7 13  1  0  0  0  0 
  4 14  2  0  0  0  0 
 14 15  1  0  0  0  0 
 15 16  1  0  0  0  0 
 16 17  1  0  0  0  0 
 15 18  2  0  0  0  0 
  2 18  1  0  0  0  0 
 18 19  1  0  0  0  0 
 19 20  1  0  0  0  0 
  1 21  1  0  0  0  0 
 22 13  1  0  0  0  0 
M  END
> <InChI>
InChI=1S/C14H18N4O4/c1-20-10-5-8(6-11(21-2)12(10)22-3)4-9-7-16-14(15)17-13(9)18-19/h5-7,19H,4H2,1-3H3,(H3,15,16,17,18)

> <InChIKey>
AMCAXBNDRMBQFF-UHFFFAOYSA-N

> <SMILES>
O(C1=CC(CC=2C(=NC(=NC2)N)NO)=CC(OC)=C1OC)C

> <Synonyms>


> <PUBCHEM_CID>


> <Molecular_formula>
C14H18N4O4

> <Major_Isotope_Mass>
306.132805056

> <ALogP>
1.7910999999999995

> <Lipinski_Violations>
0

> <Insecticide_Likeness_Violations>
1

> <Post_Em_Herbicide_Likeness_Violations>
1

> <Metabolite_ID>
BTM00004

> <Reaction>
N-Hydroxylation of primary arylamine

> <Reaction_ID>
BTMR0042

> <Enzyme(s)>
CYP1A2
CYP2C9
CYP2C19
CYP2E1
CYP3A4

> <Biosystem>
HUMAN

> <Precursor_ID>
TEST0046_Trimethoprim

> <Precursor_SMILES>
O(C1=CC(CC=2C(=NC(=NC2)N)N)=CC(OC)=C1OC)C

> <Precursor_InChI>
InChI=1S/C14H18N4O3/c1-19-10-5-8(6-11(20-2)12(10)21-3)4-9-7-17-14(16)18-13(9)15/h5-7H,4H2,1-3H3,(H4,15,16,17,18)

> <Precursor_InChIKey>
IEDVJHCEMCRBQM-UHFFFAOYSA-N

> <Precursor_ALogP>
1.573499

> <Precursor_Major_Isotope_Mass>
290.1378

$$$$
BTM00005
  CDK     07192412402D

 22 23  0  0  0  0  0  0  0  0999 V2000
    3.5734   -4.3130    0.0000 O   0  0  0  0  0  0  0  0  0  0  0  0
    2.2741   -3.5634    0.0000 C   0  0  0  0  0  0  0  0  0  0  0  0
    0.9752   -4.3136    0.0000 C   0  0  0  0  0  0  0  0  0  0  0  0
   -0.3245   -3.5630    0.0000 C   0  0  0  0  0  0  0  0  0  0  0  0
   -1.6234   -4.3132    0.0000 C   0  0  0  0  0  0  0  0  0  0  0  0
   -2.9225   -3.5634    0.0000 C   0  0  0  0  0  0  0  0  0  0  0  0
   -4.2216   -4.3134    0.0000 C   0  0  0  0  0  0  0  0  0  0  0  0
   -5.5211   -3.5626    0.0000 N   0  0  0  0  0  0  0  0  0  0  0  0
   -5.5216   -2.0618    0.0000 C   0  0  0  0  0  0  0  0  0  0  0  0
   -4.2225   -1.3118    0.0000 N   0  0  0  0  0  0  0  0  0  0  0  0
   -2.9230   -2.0626    0.0000 C   0  0  0  0  0  0  0  0  0  0  0  0
   -6.8207   -1.3120    0.0000 N   0  0  0  0  0  0  0  0  0  0  0  0
   -4.2218   -5.8134    0.0000 N   0  0  0  0  0  0  0  0  0  0  0  0
   -0.3252   -2.0622    0.0000 C   0  0  0  0  0  0  0  0  0  0  0  0
    0.9737   -1.3120    0.0000 C   0  0  0  0  0  0  0  0  0  0  0  0
    0.9737    0.1880    0.0000 O   0  0  0  0  0  0  0  0  0  0  0  0
    2.2728    0.9380    0.0000 C   0  0  0  0  0  0  0  0  0  0  0  0
    2.2734   -2.0626    0.0000 C   0  0  0  0  0  0  0  0  0  0  0  0
    3.5723   -1.3124    0.0000 O   0  0  0  0  0  0  0  0  0  0  0  0
    4.8715   -2.0622    0.0000 C   0  0  0  0  0  0  0  0  0  0  0  0
    4.8722   -3.5626    0.0000 C   0  0  0  0  0  0  0  0  0  0  0  0
   -8.1196   -2.0622    0.0000 O   0  0  0  0  0  0  0  0  0  0  0  0
  1  2  1  0  0  0  0 
  2  3  2  0  0  0  0 
  3  4  1  0  0  0  0 
  4  5  1  0  0  0  0 
  5  6  1  0  0  0  0 
  6  7  1  0  0  0  0 
  7  8  2  0  0  0  0 
  8  9  1  0  0  0  0 
  9 10  2  0  0  0  0 
 10 11  1  0  0  0  0 
  6 11  2  0  0  0  0 
  9 12  1  0  0  0  0 
  7 13  1  0  0  0  0 
  4 14  2  0  0  0  0 
 14 15  1  0  0  0  0 
 15 16  1  0  0  0  0 
 16 17  1  0  0  0  0 
 15 18  2  0  0  0  0 
  2 18  1  0  0  0  0 
 18 19  1  0  0  0  0 
 19 20  1  0  0  0  0 
  1 21  1  0  0  0  0 
 22 12  1  0  0  0  0 
M  END
> <InChI>
InChI=1S/C14H18N4O4/c1-20-10-5-8(6-11(21-2)12(10)22-3)4-9-7-16-14(18-19)17-13(9)15/h5-7,19H,4H2,1-3H3,(H3,15,16,17,18)

> <InChIKey>
UOOAVAWWPQMZEC-UHFFFAOYSA-N

> <SMILES>
O(C1=CC(CC=2C(=NC(=NC2)NO)N)=CC(OC)=C1OC)C

> <Synonyms>


> <PUBCHEM_CID>


> <Molecular_formula>
C14H18N4O4

> <Major_Isotope_Mass>
306.132805056

> <ALogP>
1.7910999999999995

> <Lipinski_Violations>
0

> <Insecticide_Likeness_Violations>
1

> <Post_Em_Herbicide_Likeness_Violations>
1

> <Metabolite_ID>
BTM00005

> <Reaction>
N-Hydroxylation of primary arylamine

> <Reaction_ID>
BTMR0042

> <Enzyme(s)>
CYP1A2
CYP2C9
CYP2C19
CYP2E1
CYP3A4

> <Biosystem>
HUMAN

> <Precursor_ID>
TEST0046_Trimethoprim

> <Precursor_SMILES>
O(C1=CC(CC=2C(=NC(=NC2)N)N)=CC(OC)=C1OC)C

> <Precursor_InChI>
InChI=1S/C14H18N4O3/c1-19-10-5-8(6-11(20-2)12(10)21-3)4-9-7-17-14(16)18-13(9)15/h5-7H,4H2,1-3H3,(H4,15,16,17,18)

> <Precursor_InChIKey>
IEDVJHCEMCRBQM-UHFFFAOYSA-N

> <Precursor_ALogP>
1.573499

> <Precursor_Major_Isotope_Mass>
290.1378

$$$$
BTM00006
  CDK     07192412402D

 22 23  0  0  0  0  0  0  0  0999 V2000
   -1.2983   -0.7521    0.0000 O   0  0  0  0  0  0  0  0  0  0  0  0
   -1.2988    0.7479    0.0000 C   0  0  0  0  0  0  0  0  0  0  0  0
   -2.5980    1.4977    0.0000 C   0  0  0  0  0  0  0  0  0  0  0  0
   -2.5977    2.9985    0.0000 C   0  0  0  0  0  0  0  0  0  0  0  0
   -3.8969    3.7483    0.0000 C   0  0  0  0  0  0  0  0  0  0  0  0
   -5.1958    2.9981    0.0000 C   0  0  0  0  0  0  0  0  0  0  0  0
   -5.1958    1.4981    0.0000 C   0  0  0  0  0  0  0  0  0  0  0  0
   -6.4958    0.7481    0.0000 N   0  0  0  0  0  0  0  0  0  0  0  0
   -7.7958    1.4981    0.0000 C   0  0  0  0  0  0  0  0  0  0  0  0
   -7.7958    2.9981    0.0000 N   0  0  0  0  0  0  0  0  0  0  0  0
   -6.4958    3.7481    0.0000 C   0  0  0  0  0  0  0  0  0  0  0  0
   -9.0947    0.7479    0.0000 N   0  0  0  0  0  0  0  0  0  0  0  0
   -3.8969    0.7479    0.0000 N   0  0  0  0  0  0  0  0  0  0  0  0
   -1.2983    3.7496    0.0000 C   0  0  0  0  0  0  0  0  0  0  0  0
    0.0008    2.9998    0.0000 C   0  0  0  0  0  0  0  0  0  0  0  0
    1.2999    3.7498    0.0000 O   0  0  0  0  0  0  0  0  0  0  0  0
    2.5989    2.9998    0.0000 C   0  0  0  0  0  0  0  0  0  0  0  0
    0.0006    1.4990    0.0000 C   0  0  0  0  0  0  0  0  0  0  0  0
    1.2998    0.7492    0.0000 O   0  0  0  0  0  0  0  0  0  0  0  0
    2.5987    1.4994    0.0000 C   0  0  0  0  0  0  0  0  0  0  0  0
    0.0010   -1.5017    0.0000 C   0  0  0  0  0  0  0  0  0  0  0  0
   -9.0947    3.7483    0.0000 O   0  0  0  0  0  0  0  0  0  0  0  0
  1  2  1  0  0  0  0 
  2  3  2  0  0  0  0 
  3  4  1  0  0  0  0 
  4  5  1  0  0  0  0 
  5  6  1  0  0  0  0 
  6  7  1  0  0  0  0 
  7  8  2  0  0  0  0 
  8  9  1  0  0  0  0 
  9 10  2  0  0  0  0 
 10 11  1  0  0  0  0 
  6 11  2  0  0  0  0 
  9 12  1  0  0  0  0 
  7 13  1  0  0  0  0 
  4 14  2  0  0  0  0 
 14 15  1  0  0  0  0 
 15 16  1  0  0  0  0 
 16 17  1  0  0  0  0 
 15 18  2  0  0  0  0 
  2 18  1  0  0  0  0 
 18 19  1  0  0  0  0 
 19 20  1  0  0  0  0 
  1 21  1  0  0  0  0 
 22 10  1  0  0  0  0 
M  CHG  1  10   1
M  CHG  1  22  -1
M  END
> <InChI>
InChI=1S/C14H18N4O4/c1-20-10-5-8(6-11(21-2)12(10)22-3)4-9-7-18(19)14(16)17-13(9)15/h5-7H,4H2,1-3H3,(H4,15,16,17)

> <InChIKey>
FOPGIVDHWKZJDQ-UHFFFAOYSA-N

> <SMILES>
O(C1=CC(CC=2C(=NC(=[N+](C2)[O-])N)N)=CC(OC)=C1OC)C

> <Synonyms>


> <PUBCHEM_CID>


> <Molecular_formula>
C14H18N4O4

> <Major_Isotope_Mass>
306.132805056

> <ALogP>
1.5688999999999995

> <Lipinski_Violations>
0

> <Insecticide_Likeness_Violations>
0

> <Post_Em_Herbicide_Likeness_Violations>
0

> <Metabolite_ID>
BTM00006

> <Reaction>
N-Oxidation of pyrimidine

> <Reaction_ID>
BTMR1115

> <Enzyme(s)>
CYP2C9
CYP2C19
CYP3A4

> <Biosystem>
HUMAN

> <Precursor_ID>
TEST0046_Trimethoprim

> <Precursor_SMILES>
O(C1=CC(CC=2C(=NC(=NC2)N)N)=CC(OC)=C1OC)C

> <Precursor_InChI>
InChI=1S/C14H18N4O3/c1-19-10-5-8(6-11(20-2)12(10)21-3)4-9-7-17-14(16)18-13(9)15/h5-7H,4H2,1-3H3,(H4,15,16,17,18)

> <Precursor_InChIKey>
IEDVJHCEMCRBQM-UHFFFAOYSA-N

> <Precursor_ALogP>
1.573499

> <Precursor_Major_Isotope_Mass>
290.1378

$$$$
