BTM00001
  CDK     07192412412D

 29 31  0  0  0  0  0  0  0  0999 V2000
    3.8981   -0.7504    0.0000 S   0  0  0  0  0  0  0  0  0  0  0  0
    4.8624    0.3985    0.0000 O   0  0  0  0  0  0  0  0  0  0  0  0
    2.9341    0.3988    0.0000 O   0  0  0  0  0  0  0  0  0  0  0  0
    2.5989   -1.5002    0.0000 N   0  0  0  0  0  0  0  0  0  0  0  0
    1.3000   -0.7500    0.0000 C   0  0  0  0  0  0  0  0  0  0  0  0
    0.0000   -1.5000    0.0000 C   0  0  0  0  0  0  0  0  0  0  0  0
   -1.3000   -0.7500    0.0000 C   0  0  0  0  0  0  0  0  0  0  0  0
   -1.3000    0.7500    0.0000 C   0  0  0  0  0  0  0  0  0  0  0  0
    0.0000    1.5000    0.0000 C   0  0  0  0  0  0  0  0  0  0  0  0
    1.3000    0.7500    0.0000 C   0  0  0  0  0  0  0  0  0  0  0  0
   -2.5989    1.5002    0.0000 C   0  0  0  0  0  0  0  0  0  0  0  0
   -2.5987    3.0002    0.0000 O   0  0  0  0  0  0  0  0  0  0  0  0
   -3.8981    0.7504    0.0000 C   0  0  0  0  0  0  0  0  0  0  0  0
   -5.1970    1.5006    0.0000 C   0  0  0  0  0  0  0  0  0  0  0  0
   -6.4962    0.7508    0.0000 C   0  0  0  0  0  0  0  0  0  0  0  0
   -6.4890   -0.7492    0.0000 C   0  0  0  0  0  0  0  0  0  0  0  0
   -7.7554   -1.5052    0.0000 C   0  0  0  0  0  0  0  0  0  0  0  0
   -9.1090   -0.7616    0.0000 C   0  0  0  0  0  0  0  0  0  0  0  0
  -10.3981   -1.5285    0.0000 O   0  0  0  0  0  0  0  0  0  0  0  0
   -9.1161    0.7384    0.0000 C   0  0  0  0  0  0  0  0  0  0  0  0
   -7.7697    1.4948    0.0000 C   0  0  0  0  0  0  0  0  0  0  0  0
    4.8621   -1.8996    0.0000 C   0  0  0  0  0  0  0  0  0  0  0  0
    6.3394   -1.6396    0.0000 C   0  0  0  0  0  0  0  0  0  0  0  0
    7.3033   -2.7900    0.0000 C   0  0  0  0  0  0  0  0  0  0  0  0
    6.7900   -4.2003    0.0000 C   0  0  0  0  0  0  0  0  0  0  0  0
    5.3127   -4.4603    0.0000 C   0  0  0  0  0  0  0  0  0  0  0  0
    4.3488   -3.3100    0.0000 C   0  0  0  0  0  0  0  0  0  0  0  0
    7.7540   -5.3495    0.0000 C   0  0  0  0  0  0  0  0  0  0  0  0
    9.2313   -5.0893    0.0000 O   0  0  0  0  0  0  0  0  0  0  0  0
  1  2  2  0  0  0  0 
  1  3  2  0  0  0  0 
  1  4  1  0  0  0  0 
  4  5  1  0  0  0  0 
  5  6  2  0  0  0  0 
  6  7  1  0  0  0  0 
  7  8  2  0  0  0  0 
  8  9  1  0  0  0  0 
  9 10  2  0  0  0  0 
  5 10  1  0  0  0  0 
  8 11  1  0  0  0  0 
 11 12  2  0  0  0  0 
 11 13  1  0  0  0  0 
 13 14  2  0  0  0  0 
 14 15  1  0  0  0  0 
 15 16  2  0  0  0  0 
 16 17  1  0  0  0  0 
 17 18  2  0  0  0  0 
 18 19  1  0  0  0  0 
 18 20  1  0  0  0  0 
 20 21  2  0  0  0  0 
 15 21  1  0  0  0  0 
  1 22  1  0  0  0  0 
 22 23  2  0  0  0  0 
 23 24  1  0  0  0  0 
 24 25  2  0  0  0  0 
 25 26  1  0  0  0  0 
 26 27  2  0  0  0  0 
 22 27  1  0  0  0  0 
 25 28  1  0  0  0  0 
 29 28  1  0  0  0  0 
M  END
> <InChI>
InChI=1S/C22H19NO5S/c24-15-17-3-12-21(13-4-17)29(27,28)23-19-8-6-18(7-9-19)22(26)14-5-16-1-10-20(25)11-2-16/h1-14,23-25H,15H2/b14-5+

> <InChIKey>
CZAUUEPUFWKXTK-LHHJGKSTSA-N

> <SMILES>
S(=O)(=O)(NC1=CC=C(C=C1)C(=O)/C=C/C2=CC=C(O)C=C2)C3=CC=C(C=C3)CO

> <Synonyms>


> <PUBCHEM_CID>


> <Molecular_formula>
C22H19NO5S

> <Major_Isotope_Mass>
409.09839370799995

> <ALogP>
3.6516999999999986

> <Lipinski_Violations>
0

> <Insecticide_Likeness_Violations>
1

> <Post_Em_Herbicide_Likeness_Violations>
1

> <Metabolite_ID>
BTM00001

> <Reaction>
Aliphatic hydroxylation of methyl carbon adjacent to aromatic ring

> <Reaction_ID>
BTMR1058

> <Enzyme(s)>
CYP2C9
CYP2C19
CYP2D6
CYP3A4

> <Biosystem>
HUMAN

> <Precursor_ID>
TEST0058_TSAHC

> <Precursor_SMILES>
S(=O)(=O)(NC1=CC=C(C=C1)C(=O)/C=C/C2=CC=C(O)C=C2)C3=CC=C(C=C3)C

> <Precursor_InChI>
InChI=1S/C22H19NO4S/c1-16-2-13-21(14-3-16)28(26,27)23-19-9-7-18(8-10-19)22(25)15-6-17-4-11-20(24)12-5-17/h2-15,23-24H,1H3/b15-6+

> <Precursor_InChIKey>
KDODYFOOJCIHGK-GIDUJCDVSA-N

> <Precursor_ALogP>
4.7424

> <Precursor_Major_Isotope_Mass>
393.1034

$$$$
BTM00002
  CDK     07192412412D

 29 31  0  0  0  0  0  0  0  0999 V2000
    3.8981   -0.7504    0.0000 S   0  0  0  0  0  0  0  0  0  0  0  0
    4.8624    0.3985    0.0000 O   0  0  0  0  0  0  0  0  0  0  0  0
    2.9341    0.3988    0.0000 O   0  0  0  0  0  0  0  0  0  0  0  0
    2.5989   -1.5002    0.0000 N   0  0  0  0  0  0  0  0  0  0  0  0
    1.3000   -0.7500    0.0000 C   0  0  0  0  0  0  0  0  0  0  0  0
    0.0000   -1.5000    0.0000 C   0  0  0  0  0  0  0  0  0  0  0  0
   -1.3000   -0.7500    0.0000 C   0  0  0  0  0  0  0  0  0  0  0  0
   -1.3000    0.7500    0.0000 C   0  0  0  0  0  0  0  0  0  0  0  0
    0.0000    1.5000    0.0000 C   0  0  0  0  0  0  0  0  0  0  0  0
    1.3000    0.7500    0.0000 C   0  0  0  0  0  0  0  0  0  0  0  0
   -2.5989    1.5002    0.0000 C   0  0  0  0  0  0  0  0  0  0  0  0
   -2.5987    3.0002    0.0000 O   0  0  0  0  0  0  0  0  0  0  0  0
   -3.8981    0.7504    0.0000 C   0  0  0  0  0  0  0  0  0  0  0  0
   -5.1970    1.5006    0.0000 C   0  0  0  0  0  0  0  0  0  0  0  0
   -6.4962    0.7508    0.0000 C   0  0  0  0  0  0  0  0  0  0  0  0
   -6.4890   -0.7492    0.0000 C   0  0  0  0  0  0  0  0  0  0  0  0
   -7.7554   -1.5052    0.0000 C   0  0  0  0  0  0  0  0  0  0  0  0
   -9.1090   -0.7616    0.0000 C   0  0  0  0  0  0  0  0  0  0  0  0
  -10.3981   -1.5285    0.0000 O   0  0  0  0  0  0  0  0  0  0  0  0
   -9.1161    0.7384    0.0000 C   0  0  0  0  0  0  0  0  0  0  0  0
   -7.7697    1.4948    0.0000 C   0  0  0  0  0  0  0  0  0  0  0  0
    4.8621   -1.8996    0.0000 C   0  0  0  0  0  0  0  0  0  0  0  0
    6.3402   -1.6395    0.0000 C   0  0  0  0  0  0  0  0  0  0  0  0
    7.3053   -2.7889    0.0000 C   0  0  0  0  0  0  0  0  0  0  0  0
    6.7922   -4.1984    0.0000 C   0  0  0  0  0  0  0  0  0  0  0  0
    5.3141   -4.4586    0.0000 C   0  0  0  0  0  0  0  0  0  0  0  0
    4.3490   -3.3092    0.0000 C   0  0  0  0  0  0  0  0  0  0  0  0
    7.7562   -5.3477    0.0000 C   0  0  0  0  0  0  0  0  0  0  0  0
    8.7824   -2.5282    0.0000 O   0  0  0  0  0  0  0  0  0  0  0  0
  1  2  2  0  0  0  0 
  1  3  2  0  0  0  0 
  1  4  1  0  0  0  0 
  4  5  1  0  0  0  0 
  5  6  2  0  0  0  0 
  6  7  1  0  0  0  0 
  7  8  2  0  0  0  0 
  8  9  1  0  0  0  0 
  9 10  2  0  0  0  0 
  5 10  1  0  0  0  0 
  8 11  1  0  0  0  0 
 11 12  2  0  0  0  0 
 11 13  1  0  0  0  0 
 13 14  2  0  0  0  0 
 14 15  1  0  0  0  0 
 15 16  2  0  0  0  0 
 16 17  1  0  0  0  0 
 17 18  2  0  0  0  0 
 18 19  1  0  0  0  0 
 18 20  1  0  0  0  0 
 20 21  2  0  0  0  0 
 15 21  1  0  0  0  0 
  1 22  1  0  0  0  0 
 22 23  2  0  0  0  0 
 23 24  1  0  0  0  0 
 24 25  2  0  0  0  0 
 25 26  1  0  0  0  0 
 26 27  2  0  0  0  0 
 22 27  1  0  0  0  0 
 25 28  1  0  0  0  0 
 29 24  1  0  0  0  0 
M  END
> <InChI>
InChI=1S/C22H19NO5S/c1-15-2-12-20(14-22(15)26)29(27,28)23-18-8-6-17(7-9-18)21(25)13-5-16-3-10-19(24)11-4-16/h2-14,23-24,26H,1H3/b13-5+

> <InChIKey>
QKSVRGINMKLLOE-WLRTZDKTSA-N

> <SMILES>
S(=O)(=O)(NC1=CC=C(C=C1)C(=O)/C=C/C2=CC=C(O)C=C2)C3=CC(=C(C=C3)C)O

> <Synonyms>


> <PUBCHEM_CID>


> <Molecular_formula>
C22H19NO5S

> <Major_Isotope_Mass>
409.098393708

> <ALogP>
4.475

> <Lipinski_Violations>
0

> <Insecticide_Likeness_Violations>
1

> <Post_Em_Herbicide_Likeness_Violations>
1

> <Metabolite_ID>
BTM00002

> <Reaction>
Hydroxylation of benzene on carbon ortho to electron donating group

> <Reaction_ID>
BTMR1045

> <Enzyme(s)>
CYP2C9
CYP2C19
CYP2D6
CYP3A4

> <Biosystem>
HUMAN

> <Precursor_ID>
TEST0058_TSAHC

> <Precursor_SMILES>
S(=O)(=O)(NC1=CC=C(C=C1)C(=O)/C=C/C2=CC=C(O)C=C2)C3=CC=C(C=C3)C

> <Precursor_InChI>
InChI=1S/C22H19NO4S/c1-16-2-13-21(14-3-16)28(26,27)23-19-9-7-18(8-10-19)22(25)15-6-17-4-11-20(24)12-5-17/h2-15,23-24H,1H3/b15-6+

> <Precursor_InChIKey>
KDODYFOOJCIHGK-GIDUJCDVSA-N

> <Precursor_ALogP>
4.7424

> <Precursor_Major_Isotope_Mass>
393.1034

$$$$
BTM00003
  CDK     07192412412D

 29 31  0  0  0  0  0  0  0  0999 V2000
   -3.8981    0.7504    0.0000 S   0  0  0  0  0  0  0  0  0  0  0  0
   -4.8624   -0.3985    0.0000 O   0  0  0  0  0  0  0  0  0  0  0  0
   -2.9341   -0.3988    0.0000 O   0  0  0  0  0  0  0  0  0  0  0  0
   -2.5989    1.5002    0.0000 N   0  0  0  0  0  0  0  0  0  0  0  0
   -1.3000    0.7500    0.0000 C   0  0  0  0  0  0  0  0  0  0  0  0
    0.0000    1.5000    0.0000 C   0  0  0  0  0  0  0  0  0  0  0  0
    1.3000    0.7500    0.0000 C   0  0  0  0  0  0  0  0  0  0  0  0
    1.3000   -0.7500    0.0000 C   0  0  0  0  0  0  0  0  0  0  0  0
    0.0000   -1.5000    0.0000 C   0  0  0  0  0  0  0  0  0  0  0  0
   -1.3000   -0.7500    0.0000 C   0  0  0  0  0  0  0  0  0  0  0  0
    2.5989   -1.5002    0.0000 C   0  0  0  0  0  0  0  0  0  0  0  0
    2.5987   -3.0002    0.0000 O   0  0  0  0  0  0  0  0  0  0  0  0
    3.8981   -0.7504    0.0000 C   0  0  0  0  0  0  0  0  0  0  0  0
    5.1970   -1.5006    0.0000 C   0  0  0  0  0  0  0  0  0  0  0  0
    6.4962   -0.7508    0.0000 C   0  0  0  0  0  0  0  0  0  0  0  0
    6.4890    0.7492    0.0000 C   0  0  0  0  0  0  0  0  0  0  0  0
    7.7554    1.5052    0.0000 C   0  0  0  0  0  0  0  0  0  0  0  0
    9.1090    0.7616    0.0000 C   0  0  0  0  0  0  0  0  0  0  0  0
   10.3981    1.5285    0.0000 O   0  0  0  0  0  0  0  0  0  0  0  0
    9.1161   -0.7384    0.0000 C   0  0  0  0  0  0  0  0  0  0  0  0
    7.7697   -1.4948    0.0000 C   0  0  0  0  0  0  0  0  0  0  0  0
   -4.8621    1.8996    0.0000 C   0  0  0  0  0  0  0  0  0  0  0  0
   -6.3394    1.6396    0.0000 C   0  0  0  0  0  0  0  0  0  0  0  0
   -7.3033    2.7900    0.0000 C   0  0  0  0  0  0  0  0  0  0  0  0
   -6.7900    4.2003    0.0000 C   0  0  0  0  0  0  0  0  0  0  0  0
   -5.3127    4.4603    0.0000 C   0  0  0  0  0  0  0  0  0  0  0  0
   -4.3488    3.3100    0.0000 C   0  0  0  0  0  0  0  0  0  0  0  0
   -7.7540    5.3495    0.0000 C   0  0  0  0  0  0  0  0  0  0  0  0
    2.5989    1.5002    0.0000 O   0  0  0  0  0  0  0  0  0  0  0  0
  1  2  2  0  0  0  0 
  1  3  2  0  0  0  0 
  1  4  1  0  0  0  0 
  4  5  1  0  0  0  0 
  5  6  2  0  0  0  0 
  6  7  1  0  0  0  0 
  7  8  2  0  0  0  0 
  8  9  1  0  0  0  0 
  9 10  2  0  0  0  0 
  5 10  1  0  0  0  0 
  8 11  1  0  0  0  0 
 11 12  2  0  0  0  0 
 11 13  1  0  0  0  0 
 13 14  2  0  0  0  0 
 14 15  1  0  0  0  0 
 15 16  2  0  0  0  0 
 16 17  1  0  0  0  0 
 17 18  2  0  0  0  0 
 18 19  1  0  0  0  0 
 18 20  1  0  0  0  0 
 20 21  2  0  0  0  0 
 15 21  1  0  0  0  0 
  1 22  1  0  0  0  0 
 22 23  2  0  0  0  0 
 23 24  1  0  0  0  0 
 24 25  2  0  0  0  0 
 25 26  1  0  0  0  0 
 26 27  2  0  0  0  0 
 22 27  1  0  0  0  0 
 25 28  1  0  0  0  0 
 29  7  1  0  0  0  0 
M  END
> <InChI>
InChI=1S/C22H19NO5S/c1-15-2-10-19(11-3-15)29(27,28)23-17-7-12-20(22(26)14-17)21(25)13-6-16-4-8-18(24)9-5-16/h2-14,23-24,26H,1H3/b13-6+

> <InChIKey>
XJOJKAICHFCQIM-AWNIVKPZSA-N

> <SMILES>
S(=O)(=O)(NC1=CC(=C(C=C1)C(=O)/C=C/C2=CC=C(O)C=C2)O)C3=CC=C(C=C3)C

> <Synonyms>


> <PUBCHEM_CID>


> <Molecular_formula>
C22H19NO5S

> <Major_Isotope_Mass>
409.098393708

> <ALogP>
4.475

> <Lipinski_Violations>
0

> <Insecticide_Likeness_Violations>
1

> <Post_Em_Herbicide_Likeness_Violations>
1

> <Metabolite_ID>
BTM00003

> <Reaction>
Hydroxylation of benzene on carbon ortho to electron donating group

> <Reaction_ID>
BTMR1045

> <Enzyme(s)>
CYP2C9
CYP2C19
CYP2D6
CYP3A4

> <Biosystem>
HUMAN

> <Precursor_ID>
TEST0058_TSAHC

> <Precursor_SMILES>
S(=O)(=O)(NC1=CC=C(C=C1)C(=O)/C=C/C2=CC=C(O)C=C2)C3=CC=C(C=C3)C

> <Precursor_InChI>
InChI=1S/C22H19NO4S/c1-16-2-13-21(14-3-16)28(26,27)23-19-9-7-18(8-10-19)22(25)15-6-17-4-11-20(24)12-5-17/h2-15,23-24H,1H3/b15-6+

> <Precursor_InChIKey>
KDODYFOOJCIHGK-GIDUJCDVSA-N

> <Precursor_ALogP>
4.7424

> <Precursor_Major_Isotope_Mass>
393.1034

$$$$
BTM00004
  CDK     07192412412D

 28 30  0  0  0  0  0  0  0  0999 V2000
    3.8981   -0.7504    0.0000 S   0  0  0  0  0  0  0  0  0  0  0  0
    4.8624    0.3985    0.0000 O   0  0  0  0  0  0  0  0  0  0  0  0
    2.9341    0.3988    0.0000 O   0  0  0  0  0  0  0  0  0  0  0  0
    2.5989   -1.5002    0.0000 N   0  0  0  0  0  0  0  0  0  0  0  0
    1.3000   -0.7500    0.0000 C   0  0  0  0  0  0  0  0  0  0  0  0
    0.0000   -1.5000    0.0000 C   0  0  0  0  0  0  0  0  0  0  0  0
   -1.3000   -0.7500    0.0000 C   0  0  0  0  0  0  0  0  0  0  0  0
   -1.3000    0.7500    0.0000 C   0  0  0  0  0  0  0  0  0  0  0  0
    0.0000    1.5000    0.0000 C   0  0  0  0  0  0  0  0  0  0  0  0
    1.3000    0.7500    0.0000 C   0  0  0  0  0  0  0  0  0  0  0  0
   -2.5989    1.5002    0.0000 C   0  0  0  0  0  0  0  0  0  0  0  0
   -2.5987    3.0002    0.0000 O   0  0  0  0  0  0  0  0  0  0  0  0
   -3.8981    0.7504    0.0000 C   0  0  0  0  0  0  0  0  0  0  0  0
   -5.1970    1.5006    0.0000 C   0  0  0  0  0  0  0  0  0  0  0  0
   -6.4962    0.7508    0.0000 C   0  0  0  0  0  0  0  0  0  0  0  0
   -6.4890   -0.7492    0.0000 C   0  0  0  0  0  0  0  0  0  0  0  0
   -7.7554   -1.5052    0.0000 C   0  0  0  0  0  0  0  0  0  0  0  0
   -9.1090   -0.7616    0.0000 C   0  0  0  0  0  0  0  0  0  0  0  0
  -10.3981   -1.5285    0.0000 O   0  0  0  0  0  0  0  0  0  0  0  0
   -9.1161    0.7384    0.0000 C   0  0  0  0  0  0  0  0  0  0  0  0
   -7.7697    1.4948    0.0000 C   0  0  0  0  0  0  0  0  0  0  0  0
    4.8621   -1.8996    0.0000 C   0  0  0  0  0  0  0  0  0  0  0  0
    6.3394   -1.6396    0.0000 C   0  0  0  0  0  0  0  0  0  0  0  0
    7.3033   -2.7900    0.0000 C   0  0  0  0  0  0  0  0  0  0  0  0
    6.7900   -4.2003    0.0000 C   0  0  0  0  0  0  0  0  0  0  0  0
    5.3127   -4.4603    0.0000 C   0  0  0  0  0  0  0  0  0  0  0  0
    4.3488   -3.3100    0.0000 C   0  0  0  0  0  0  0  0  0  0  0  0
    7.7540   -5.3495    0.0000 C   0  0  0  0  0  0  0  0  0  0  0  0
  1  2  2  0  0  0  0 
  1  3  2  0  0  0  0 
  1  4  1  0  0  0  0 
  4  5  1  0  0  0  0 
  5  6  2  0  0  0  0 
  6  7  1  0  0  0  0 
  7  8  2  0  0  0  0 
  8  9  1  0  0  0  0 
  9 10  2  0  0  0  0 
  5 10  1  0  0  0  0 
  8 11  1  0  0  0  0 
 11 12  1  0  0  0  0 
 11 13  1  0  0  0  0 
 13 14  2  0  0  0  0 
 14 15  1  0  0  0  0 
 15 16  2  0  0  0  0 
 16 17  1  0  0  0  0 
 17 18  2  0  0  0  0 
 18 19  1  0  0  0  0 
 18 20  1  0  0  0  0 
 20 21  2  0  0  0  0 
 15 21  1  0  0  0  0 
  1 22  1  0  0  0  0 
 22 23  2  0  0  0  0 
 23 24  1  0  0  0  0 
 24 25  2  0  0  0  0 
 25 26  1  0  0  0  0 
 26 27  2  0  0  0  0 
 22 27  1  0  0  0  0 
 25 28  1  0  0  0  0 
M  END
> <InChI>
InChI=1S/C22H21NO4S/c1-16-2-13-21(14-3-16)28(26,27)23-19-9-7-18(8-10-19)22(25)15-6-17-4-11-20(24)12-5-17/h2-15,22-25H,1H3/b15-6+

> <InChIKey>
JFQGQXCEWQKLEX-GIDUJCDVSA-N

> <SMILES>
S(=O)(=O)(NC1=CC=C(C=C1)C(O)/C=C/C2=CC=C(O)C=C2)C3=CC=C(C=C3)C

> <Synonyms>


> <PUBCHEM_CID>


> <Molecular_formula>
C22H21NO4S

> <Major_Isotope_Mass>
395.1191291520001

> <ALogP>
4.4525999999999994

> <Lipinski_Violations>
0

> <Insecticide_Likeness_Violations>
1

> <Post_Em_Herbicide_Likeness_Violations>
1

> <Metabolite_ID>
BTM00004

> <Reaction>
Reduction of ketone to alcohol

> <Reaction_ID>
BTMR1171

> <Enzyme(s)>
CYP2C9

> <Biosystem>
HUMAN

> <Precursor_ID>
TEST0058_TSAHC

> <Precursor_SMILES>
S(=O)(=O)(NC1=CC=C(C=C1)C(=O)/C=C/C2=CC=C(O)C=C2)C3=CC=C(C=C3)C

> <Precursor_InChI>
InChI=1S/C22H19NO4S/c1-16-2-13-21(14-3-16)28(26,27)23-19-9-7-18(8-10-19)22(25)15-6-17-4-11-20(24)12-5-17/h2-15,23-24H,1H3/b15-6+

> <Precursor_InChIKey>
KDODYFOOJCIHGK-GIDUJCDVSA-N

> <Precursor_ALogP>
4.7424

> <Precursor_Major_Isotope_Mass>
393.1034

$$$$
BTM00005
  CDK     07192412412D

 29 32  0  0  0  0  0  0  0  0999 V2000
    1.2520   -4.3699    0.0000 S   0  0  0  0  0  0  0  0  0  0  0  0
   -0.1576   -4.8827    0.0000 O   0  0  0  0  0  0  0  0  0  0  0  0
    1.5122   -5.8471    0.0000 O   0  0  0  0  0  0  0  0  0  0  0  0
    0.5022   -3.0707    0.0000 N   0  0  0  0  0  0  0  0  0  0  0  0
   -0.9978   -3.0705    0.0000 C   0  0  0  0  0  0  0  0  0  0  0  0
   -1.7486   -4.3700    0.0000 C   0  0  0  0  0  0  0  0  0  0  0  0
   -3.2495   -4.3705    0.0000 C   0  0  0  0  0  0  0  0  0  0  0  0
   -3.9995   -3.0714    0.0000 C   0  0  0  0  0  0  0  0  0  0  0  0
   -3.2486   -1.7719    0.0000 C   0  0  0  0  0  0  0  0  0  0  0  0
   -1.7478   -1.7714    0.0000 C   0  0  0  0  0  0  0  0  0  0  0  0
   -5.4995   -3.0712    0.0000 C   0  0  0  0  0  0  0  0  0  0  0  0
   -6.2497   -4.3701    0.0000 O   0  0  0  0  0  0  0  0  0  0  0  0
   -6.2493   -1.7720    0.0000 C   0  0  0  0  0  0  0  0  0  0  0  0
   -7.5483   -1.0220    0.0000 C   0  0  0  0  0  0  0  0  0  0  0  0
   -9.0483   -1.0223    0.0000 C   0  0  0  0  0  0  0  0  0  0  0  0
   -9.7917   -2.3251    0.0000 C   0  0  0  0  0  0  0  0  0  0  0  0
  -11.2664   -2.3471    0.0000 C   0  0  0  0  0  0  0  0  0  0  0  0
  -12.0673   -1.0266    0.0000 C   0  0  0  0  0  0  0  0  0  0  0  0
  -13.5672   -1.0466    0.0000 O   0  0  0  0  0  0  0  0  0  0  0  0
  -11.3239    0.2762    0.0000 C   0  0  0  0  0  0  0  0  0  0  0  0
   -9.7797    0.2586    0.0000 C   0  0  0  0  0  0  0  0  0  0  0  0
    2.6616   -3.8571    0.0000 C   0  0  0  0  0  0  0  0  0  0  0  0
    2.9226   -2.3799    0.0000 C   0  0  0  0  0  0  0  0  0  0  0  0
    4.3332   -1.8675    0.0000 C   0  0  0  0  0  0  0  0  0  0  0  0
    5.4829   -2.8322    0.0000 C   0  0  0  0  0  0  0  0  0  0  0  0
    5.2220   -4.3094    0.0000 C   0  0  0  0  0  0  0  0  0  0  0  0
    3.8113   -4.8218    0.0000 C   0  0  0  0  0  0  0  0  0  0  0  0
    6.8925   -2.3194    0.0000 C   0  0  0  0  0  0  0  0  0  0  0  0
   -6.2488   -0.2712    0.0000 O   0  0  0  0  0  0  0  0  0  0  0  0
  1  2  2  0  0  0  0 
  1  3  2  0  0  0  0 
  1  4  1  0  0  0  0 
  4  5  1  0  0  0  0 
  5  6  2  0  0  0  0 
  6  7  1  0  0  0  0 
  7  8  2  0  0  0  0 
  8  9  1  0  0  0  0 
  9 10  2  0  0  0  0 
  5 10  1  0  0  0  0 
  8 11  1  0  0  0  0 
 11 12  2  0  0  0  0 
 11 13  1  0  0  0  0 
 13 14  1  0  0  0  0 
 14 15  1  0  0  0  0 
 15 16  2  0  0  0  0 
 16 17  1  0  0  0  0 
 17 18  2  0  0  0  0 
 18 19  1  0  0  0  0 
 18 20  1  0  0  0  0 
 20 21  2  0  0  0  0 
 15 21  1  0  0  0  0 
  1 22  1  0  0  0  0 
 22 23  2  0  0  0  0 
 23 24  1  0  0  0  0 
 24 25  2  0  0  0  0 
 25 26  1  0  0  0  0 
 26 27  2  0  0  0  0 
 22 27  1  0  0  0  0 
 25 28  1  0  0  0  0 
 14 29  1  0  0  0  0 
 29 13  1  0  0  0  0 
M  END
> <InChI>
InChI=1S/C22H19NO5S/c1-14-2-12-19(13-3-14)29(26,27)23-17-8-4-15(5-9-17)20(25)22-21(28-22)16-6-10-18(24)11-7-16/h2-13,21-24H,1H3

> <InChIKey>
DSOIJKMJJHHGCB-UHFFFAOYSA-N

> <SMILES>
S(=O)(=O)(NC1=CC=C(C=C1)C(=O)C2C(C3=CC=C(O)C=C3)O2)C4=CC=C(C=C4)C

> <Synonyms>


> <PUBCHEM_CID>


> <Molecular_formula>
C22H19NO5S

> <Major_Isotope_Mass>
409.09839370800006

> <ALogP>
4.0197

> <Lipinski_Violations>
0

> <Insecticide_Likeness_Violations>
0

> <Post_Em_Herbicide_Likeness_Violations>
0

> <Metabolite_ID>
BTM00005

> <Reaction>
Epoxidation of alkene

> <Reaction_ID>
BTMR0109

> <Enzyme(s)>
CYP2C9
CYP2C19
CYP2D6
CYP3A4

> <Biosystem>
HUMAN

> <Precursor_ID>
TEST0058_TSAHC

> <Precursor_SMILES>
S(=O)(=O)(NC1=CC=C(C=C1)C(=O)/C=C/C2=CC=C(O)C=C2)C3=CC=C(C=C3)C

> <Precursor_InChI>
InChI=1S/C22H19NO4S/c1-16-2-13-21(14-3-16)28(26,27)23-19-9-7-18(8-10-19)22(25)15-6-17-4-11-20(24)12-5-17/h2-15,23-24H,1H3/b15-6+

> <Precursor_InChIKey>
KDODYFOOJCIHGK-GIDUJCDVSA-N

> <Precursor_ALogP>
4.7424

> <Precursor_Major_Isotope_Mass>
393.1034

$$$$
BTM00006
  CDK     07192412412D

 29 31  0  0  0  0  0  0  0  0999 V2000
    3.8981   -0.7504    0.0000 S   0  0  0  0  0  0  0  0  0  0  0  0
    4.8624    0.3985    0.0000 O   0  0  0  0  0  0  0  0  0  0  0  0
    2.9341    0.3988    0.0000 O   0  0  0  0  0  0  0  0  0  0  0  0
    2.5989   -1.5002    0.0000 N   0  0  0  0  0  0  0  0  0  0  0  0
    1.3000   -0.7500    0.0000 C   0  0  0  0  0  0  0  0  0  0  0  0
    0.0000   -1.5000    0.0000 C   0  0  0  0  0  0  0  0  0  0  0  0
   -1.3000   -0.7500    0.0000 C   0  0  0  0  0  0  0  0  0  0  0  0
   -1.3000    0.7500    0.0000 C   0  0  0  0  0  0  0  0  0  0  0  0
    0.0000    1.5000    0.0000 C   0  0  0  0  0  0  0  0  0  0  0  0
    1.3000    0.7500    0.0000 C   0  0  0  0  0  0  0  0  0  0  0  0
   -2.5989    1.5002    0.0000 C   0  0  0  0  0  0  0  0  0  0  0  0
   -2.5987    3.0002    0.0000 O   0  0  0  0  0  0  0  0  0  0  0  0
   -3.8981    0.7504    0.0000 C   0  0  0  0  0  0  0  0  0  0  0  0
   -5.1970    1.5006    0.0000 C   0  0  0  0  0  0  0  0  0  0  0  0
   -6.4962    0.7508    0.0000 C   0  0  0  0  0  0  0  0  0  0  0  0
   -7.7956    1.5019    0.0000 C   0  0  0  0  0  0  0  0  0  0  0  0
   -9.0947    0.7521    0.0000 C   0  0  0  0  0  0  0  0  0  0  0  0
   -9.0945   -0.7488    0.0000 C   0  0  0  0  0  0  0  0  0  0  0  0
  -10.3936   -1.4985    0.0000 O   0  0  0  0  0  0  0  0  0  0  0  0
   -7.7951   -1.4998    0.0000 C   0  0  0  0  0  0  0  0  0  0  0  0
   -6.4959   -0.7500    0.0000 C   0  0  0  0  0  0  0  0  0  0  0  0
    4.8621   -1.8996    0.0000 C   0  0  0  0  0  0  0  0  0  0  0  0
    6.3394   -1.6396    0.0000 C   0  0  0  0  0  0  0  0  0  0  0  0
    7.3033   -2.7900    0.0000 C   0  0  0  0  0  0  0  0  0  0  0  0
    6.7900   -4.2003    0.0000 C   0  0  0  0  0  0  0  0  0  0  0  0
    5.3127   -4.4603    0.0000 C   0  0  0  0  0  0  0  0  0  0  0  0
    4.3488   -3.3100    0.0000 C   0  0  0  0  0  0  0  0  0  0  0  0
    7.7540   -5.3495    0.0000 C   0  0  0  0  0  0  0  0  0  0  0  0
   -7.7956   -2.9998    0.0000 O   0  0  0  0  0  0  0  0  0  0  0  0
  1  2  2  0  0  0  0 
  1  3  2  0  0  0  0 
  1  4  1  0  0  0  0 
  4  5  1  0  0  0  0 
  5  6  2  0  0  0  0 
  6  7  1  0  0  0  0 
  7  8  2  0  0  0  0 
  8  9  1  0  0  0  0 
  9 10  2  0  0  0  0 
  5 10  1  0  0  0  0 
  8 11  1  0  0  0  0 
 11 12  2  0  0  0  0 
 11 13  1  0  0  0  0 
 13 14  2  0  0  0  0 
 14 15  1  0  0  0  0 
 15 16  2  0  0  0  0 
 16 17  1  0  0  0  0 
 17 18  2  0  0  0  0 
 18 19  1  0  0  0  0 
 18 20  1  0  0  0  0 
 20 21  2  0  0  0  0 
 15 21  1  0  0  0  0 
  1 22  1  0  0  0  0 
 22 23  2  0  0  0  0 
 23 24  1  0  0  0  0 
 24 25  2  0  0  0  0 
 25 26  1  0  0  0  0 
 26 27  2  0  0  0  0 
 22 27  1  0  0  0  0 
 25 28  1  0  0  0  0 
 29 20  1  0  0  0  0 
M  END
> <InChI>
InChI=1S/C22H19NO5S/c1-15-2-10-19(11-3-15)29(27,28)23-18-8-6-17(7-9-18)20(24)12-4-16-5-13-21(25)22(26)14-16/h2-14,23,25-26H,1H3/b12-4+

> <InChIKey>
XCEAUELSIXURQB-UUILKARUSA-N

> <SMILES>
S(=O)(=O)(NC1=CC=C(C=C1)C(=O)/C=C/C2=CC=C(O)C(=C2)O)C3=CC=C(C=C3)C

> <Synonyms>


> <PUBCHEM_CID>


> <Molecular_formula>
C22H19NO5S

> <Major_Isotope_Mass>
409.098393708

> <ALogP>
4.475

> <Lipinski_Violations>
0

> <Insecticide_Likeness_Violations>
1

> <Post_Em_Herbicide_Likeness_Violations>
1

> <Metabolite_ID>
BTM00006

> <Reaction>
O-Hydroxylation of phenol

> <Reaction_ID>
BTMR1037

> <Enzyme(s)>
CYP2C9
CYP2C19
CYP2D6
CYP3A4

> <Biosystem>
HUMAN

> <Precursor_ID>
TEST0058_TSAHC

> <Precursor_SMILES>
S(=O)(=O)(NC1=CC=C(C=C1)C(=O)/C=C/C2=CC=C(O)C=C2)C3=CC=C(C=C3)C

> <Precursor_InChI>
InChI=1S/C22H19NO4S/c1-16-2-13-21(14-3-16)28(26,27)23-19-9-7-18(8-10-19)22(25)15-6-17-4-11-20(24)12-5-17/h2-15,23-24H,1H3/b15-6+

> <Precursor_InChIKey>
KDODYFOOJCIHGK-GIDUJCDVSA-N

> <Precursor_ALogP>
4.7424

> <Precursor_Major_Isotope_Mass>
393.1034

$$$$
BTM00007
  CDK     07192412412D

 29 32  0  0  0  0  0  0  0  0999 V2000
   -0.3700   -3.0000    0.0000 S   0  0  0  0  0  0  0  0  0  0  0  0
    0.1430   -4.4095    0.0000 O   0  0  0  0  0  0  0  0  0  0  0  0
    1.1072   -2.7395    0.0000 O   0  0  0  0  0  0  0  0  0  0  0  0
   -1.6690   -3.7500    0.0000 N   0  0  0  0  0  0  0  0  0  0  0  0
   -1.6690   -5.2500    0.0000 C   0  0  0  0  0  0  0  0  0  0  0  0
   -0.3694   -6.0006    0.0000 C   0  0  0  0  0  0  0  0  0  0  0  0
   -0.3687   -7.5015    0.0000 C   0  0  0  0  0  0  0  0  0  0  0  0
   -1.6676   -8.2517    0.0000 C   0  0  0  0  0  0  0  0  0  0  0  0
   -2.9672   -7.5010    0.0000 C   0  0  0  0  0  0  0  0  0  0  0  0
   -2.9680   -6.0002    0.0000 C   0  0  0  0  0  0  0  0  0  0  0  0
   -1.6676   -9.7517    0.0000 C   0  0  0  0  0  0  0  0  0  0  0  0
   -0.3686  -10.5017    0.0000 O   0  0  0  0  0  0  0  0  0  0  0  0
   -2.9666  -10.5017    0.0000 C   0  0  0  0  0  0  0  0  0  0  0  0
   -2.9666  -12.0017    0.0000 C   0  0  0  0  0  0  0  0  0  0  0  0
   -4.2657  -12.7517    0.0000 C   0  0  0  0  0  0  0  0  0  0  0  0
   -4.2583  -14.2516    0.0000 C   0  0  0  0  0  0  0  0  0  0  0  0
   -5.5246  -15.0079    0.0000 C   0  0  0  0  0  0  0  0  0  0  0  0
   -6.8783  -14.2645    0.0000 C   0  0  0  0  0  0  0  0  0  0  0  0
   -8.1673  -15.0316    0.0000 O   0  0  0  0  0  0  0  0  0  0  0  0
   -6.8856  -12.7646    0.0000 C   0  0  0  0  0  0  0  0  0  0  0  0
   -5.5393  -12.0079    0.0000 C   0  0  0  0  0  0  0  0  0  0  0  0
   -0.3700   -1.5000    0.0000 C   0  0  0  0  0  0  0  0  0  0  0  0
    0.9300   -0.7500    0.0000 C   0  0  0  0  0  0  0  0  0  0  0  0
    0.9300    0.7500    0.0000 C   0  0  0  0  0  0  0  0  0  0  0  0
   -0.3700    1.5000    0.0000 C   0  0  0  0  0  0  0  0  0  0  0  0
   -1.6700    0.7500    0.0000 C   0  0  0  0  0  0  0  0  0  0  0  0
   -1.6700   -0.7500    0.0000 C   0  0  0  0  0  0  0  0  0  0  0  0
   -0.3700    3.0000    0.0000 C   0  0  0  0  0  0  0  0  0  0  0  0
    2.2300   -0.0000    0.0000 O   0  0  0  0  0  0  0  0  0  0  0  0
  1  2  2  0  0  0  0 
  1  3  2  0  0  0  0 
  1  4  1  0  0  0  0 
  4  5  1  0  0  0  0 
  5  6  2  0  0  0  0 
  6  7  1  0  0  0  0 
  7  8  2  0  0  0  0 
  8  9  1  0  0  0  0 
  9 10  2  0  0  0  0 
  5 10  1  0  0  0  0 
  8 11  1  0  0  0  0 
 11 12  2  0  0  0  0 
 11 13  1  0  0  0  0 
 13 14  2  0  0  0  0 
 14 15  1  0  0  0  0 
 15 16  2  0  0  0  0 
 16 17  1  0  0  0  0 
 17 18  2  0  0  0  0 
 18 19  1  0  0  0  0 
 18 20  1  0  0  0  0 
 20 21  2  0  0  0  0 
 15 21  1  0  0  0  0 
  1 22  1  0  0  0  0 
 22 23  1  0  0  0  0 
 23 24  1  0  0  0  0 
 24 25  1  0  0  0  0 
 25 26  2  0  0  0  0 
 26 27  1  0  0  0  0 
 22 27  2  0  0  0  0 
 25 28  1  0  0  0  0 
 23 29  1  0  0  0  0 
 29 24  1  0  0  0  0 
M  END
> <InChI>
InChI=1S/C22H19NO5S/c1-14-2-13-20(22-21(14)28-22)29(26,27)23-17-8-6-16(7-9-17)19(25)12-5-15-3-10-18(24)11-4-15/h2-13,21-24H,1H3/b12-5+

> <InChIKey>
RVTNZYLAVXYOFM-LFYBBSHMSA-N

> <SMILES>
S(=O)(=O)(NC1=CC=C(C=C1)C(=O)/C=C/C2=CC=C(O)C=C2)C=3C4C(C(=CC3)C)O4

> <Synonyms>


> <PUBCHEM_CID>


> <Molecular_formula>
C22H19NO5S

> <Major_Isotope_Mass>
409.098393708

> <ALogP>
3.175399999999999

> <Lipinski_Violations>
0

> <Insecticide_Likeness_Violations>
0

> <Post_Em_Herbicide_Likeness_Violations>
0

> <Metabolite_ID>
BTM00007

> <Reaction>
Epoxidation of arene

> <Reaction_ID>
BTMR1028

> <Enzyme(s)>
CYP2C9
CYP2C19
CYP3A4

> <Biosystem>
HUMAN

> <Precursor_ID>
TEST0058_TSAHC

> <Precursor_SMILES>
S(=O)(=O)(NC1=CC=C(C=C1)C(=O)/C=C/C2=CC=C(O)C=C2)C3=CC=C(C=C3)C

> <Precursor_InChI>
InChI=1S/C22H19NO4S/c1-16-2-13-21(14-3-16)28(26,27)23-19-9-7-18(8-10-19)22(25)15-6-17-4-11-20(24)12-5-17/h2-15,23-24H,1H3/b15-6+

> <Precursor_InChIKey>
KDODYFOOJCIHGK-GIDUJCDVSA-N

> <Precursor_ALogP>
4.7424

> <Precursor_Major_Isotope_Mass>
393.1034

$$$$
BTM00008
  CDK     07192412412D

 29 32  0  0  0  0  0  0  0  0999 V2000
   -1.6690   -3.7500    0.0000 S   0  0  0  0  0  0  0  0  0  0  0  0
   -2.1821   -2.3405    0.0000 O   0  0  0  0  0  0  0  0  0  0  0  0
   -3.1462   -4.0105    0.0000 O   0  0  0  0  0  0  0  0  0  0  0  0
   -0.3700   -3.0000    0.0000 N   0  0  0  0  0  0  0  0  0  0  0  0
   -0.3700   -1.5000    0.0000 C   0  0  0  0  0  0  0  0  0  0  0  0
    0.9300   -0.7500    0.0000 C   0  0  0  0  0  0  0  0  0  0  0  0
    0.9300    0.7500    0.0000 C   0  0  0  0  0  0  0  0  0  0  0  0
   -0.3700    1.5000    0.0000 C   0  0  0  0  0  0  0  0  0  0  0  0
   -1.6700    0.7500    0.0000 C   0  0  0  0  0  0  0  0  0  0  0  0
   -1.6700   -0.7500    0.0000 C   0  0  0  0  0  0  0  0  0  0  0  0
   -0.3700    3.0000    0.0000 C   0  0  0  0  0  0  0  0  0  0  0  0
   -1.6690    3.7500    0.0000 O   0  0  0  0  0  0  0  0  0  0  0  0
    0.9290    3.7500    0.0000 C   0  0  0  0  0  0  0  0  0  0  0  0
    0.9290    5.2500    0.0000 C   0  0  0  0  0  0  0  0  0  0  0  0
    2.2281    6.0000    0.0000 C   0  0  0  0  0  0  0  0  0  0  0  0
    2.2207    7.5000    0.0000 C   0  0  0  0  0  0  0  0  0  0  0  0
    3.4870    8.2562    0.0000 C   0  0  0  0  0  0  0  0  0  0  0  0
    4.8407    7.5129    0.0000 C   0  0  0  0  0  0  0  0  0  0  0  0
    6.1297    8.2799    0.0000 O   0  0  0  0  0  0  0  0  0  0  0  0
    4.8480    6.0129    0.0000 C   0  0  0  0  0  0  0  0  0  0  0  0
    3.5018    5.2563    0.0000 C   0  0  0  0  0  0  0  0  0  0  0  0
   -1.1560   -5.1595    0.0000 C   0  0  0  0  0  0  0  0  0  0  0  0
    0.3212   -5.4202    0.0000 C   0  0  0  0  0  0  0  0  0  0  0  0
    0.8338   -6.8308    0.0000 C   0  0  0  0  0  0  0  0  0  0  0  0
   -0.1307   -7.9807    0.0000 C   0  0  0  0  0  0  0  0  0  0  0  0
   -1.6079   -7.7200    0.0000 C   0  0  0  0  0  0  0  0  0  0  0  0
   -2.1205   -6.3094    0.0000 C   0  0  0  0  0  0  0  0  0  0  0  0
    0.3823   -9.3902    0.0000 C   0  0  0  0  0  0  0  0  0  0  0  0
    2.2300   -0.0000    0.0000 O   0  0  0  0  0  0  0  0  0  0  0  0
  1  2  2  0  0  0  0 
  1  3  2  0  0  0  0 
  1  4  1  0  0  0  0 
  4  5  1  0  0  0  0 
  5  6  1  0  0  0  0 
  6  7  1  0  0  0  0 
  7  8  1  0  0  0  0 
  8  9  2  0  0  0  0 
  9 10  1  0  0  0  0 
  5 10  2  0  0  0  0 
  8 11  1  0  0  0  0 
 11 12  2  0  0  0  0 
 11 13  1  0  0  0  0 
 13 14  2  0  0  0  0 
 14 15  1  0  0  0  0 
 15 16  2  0  0  0  0 
 16 17  1  0  0  0  0 
 17 18  2  0  0  0  0 
 18 19  1  0  0  0  0 
 18 20  1  0  0  0  0 
 20 21  2  0  0  0  0 
 15 21  1  0  0  0  0 
  1 22  1  0  0  0  0 
 22 23  2  0  0  0  0 
 23 24  1  0  0  0  0 
 24 25  2  0  0  0  0 
 25 26  1  0  0  0  0 
 26 27  2  0  0  0  0 
 22 27  1  0  0  0  0 
 25 28  1  0  0  0  0 
  6 29  1  0  0  0  0 
 29  7  1  0  0  0  0 
M  END
> <InChI>
InChI=1S/C22H19NO5S/c1-14-2-9-17(10-3-14)29(26,27)23-19-12-11-18(21-22(19)28-21)20(25)13-6-15-4-7-16(24)8-5-15/h2-13,21-24H,1H3/b13-6+

> <InChIKey>
ZZEAYOQMYMREJF-AWNIVKPZSA-N

> <SMILES>
S(=O)(=O)(NC=1C2C(C(=CC1)C(=O)/C=C/C3=CC=C(O)C=C3)O2)C4=CC=C(C=C4)C

> <Synonyms>


> <PUBCHEM_CID>


> <Molecular_formula>
C22H19NO5S

> <Major_Isotope_Mass>
409.09839370800006

> <ALogP>
2.9805999999999995

> <Lipinski_Violations>
0

> <Insecticide_Likeness_Violations>
0

> <Post_Em_Herbicide_Likeness_Violations>
0

> <Metabolite_ID>
BTM00008

> <Reaction>
Epoxidation of arene

> <Reaction_ID>
BTMR1028

> <Enzyme(s)>
CYP2C9
CYP2C19
CYP3A4

> <Biosystem>
HUMAN

> <Precursor_ID>
TEST0058_TSAHC

> <Precursor_SMILES>
S(=O)(=O)(NC1=CC=C(C=C1)C(=O)/C=C/C2=CC=C(O)C=C2)C3=CC=C(C=C3)C

> <Precursor_InChI>
InChI=1S/C22H19NO4S/c1-16-2-13-21(14-3-16)28(26,27)23-19-9-7-18(8-10-19)22(25)15-6-17-4-11-20(24)12-5-17/h2-15,23-24H,1H3/b15-6+

> <Precursor_InChIKey>
KDODYFOOJCIHGK-GIDUJCDVSA-N

> <Precursor_ALogP>
4.7424

> <Precursor_Major_Isotope_Mass>
393.1034

$$$$
BTM00001
  CDK     07192412412D

 29 31  0  0  0  0  0  0  0  0999 V2000
    3.8981   -0.7504    0.0000 S   0  0  0  0  0  0  0  0  0  0  0  0
    4.8624    0.3985    0.0000 O   0  0  0  0  0  0  0  0  0  0  0  0
    2.9341    0.3988    0.0000 O   0  0  0  0  0  0  0  0  0  0  0  0
    2.5989   -1.5002    0.0000 N   0  0  0  0  0  0  0  0  0  0  0  0
    1.3000   -0.7500    0.0000 C   0  0  0  0  0  0  0  0  0  0  0  0
    0.0000   -1.5000    0.0000 C   0  0  0  0  0  0  0  0  0  0  0  0
   -1.3000   -0.7500    0.0000 C   0  0  0  0  0  0  0  0  0  0  0  0
   -1.3000    0.7500    0.0000 C   0  0  0  0  0  0  0  0  0  0  0  0
    0.0000    1.5000    0.0000 C   0  0  0  0  0  0  0  0  0  0  0  0
    1.3000    0.7500    0.0000 C   0  0  0  0  0  0  0  0  0  0  0  0
   -2.5989    1.5002    0.0000 C   0  0  0  0  0  0  0  0  0  0  0  0
   -2.5987    3.0002    0.0000 O   0  0  0  0  0  0  0  0  0  0  0  0
   -3.8981    0.7504    0.0000 C   0  0  0  0  0  0  0  0  0  0  0  0
   -5.1970    1.5006    0.0000 C   0  0  0  0  0  0  0  0  0  0  0  0
   -6.4962    0.7508    0.0000 C   0  0  0  0  0  0  0  0  0  0  0  0
   -6.4890   -0.7492    0.0000 C   0  0  0  0  0  0  0  0  0  0  0  0
   -7.7554   -1.5052    0.0000 C   0  0  0  0  0  0  0  0  0  0  0  0
   -9.1090   -0.7616    0.0000 C   0  0  0  0  0  0  0  0  0  0  0  0
  -10.3981   -1.5285    0.0000 O   0  0  0  0  0  0  0  0  0  0  0  0
   -9.1161    0.7384    0.0000 C   0  0  0  0  0  0  0  0  0  0  0  0
   -7.7697    1.4948    0.0000 C   0  0  0  0  0  0  0  0  0  0  0  0
    4.8621   -1.8996    0.0000 C   0  0  0  0  0  0  0  0  0  0  0  0
    6.3394   -1.6396    0.0000 C   0  0  0  0  0  0  0  0  0  0  0  0
    7.3033   -2.7900    0.0000 C   0  0  0  0  0  0  0  0  0  0  0  0
    6.7900   -4.2003    0.0000 C   0  0  0  0  0  0  0  0  0  0  0  0
    5.3127   -4.4603    0.0000 C   0  0  0  0  0  0  0  0  0  0  0  0
    4.3488   -3.3100    0.0000 C   0  0  0  0  0  0  0  0  0  0  0  0
    7.7540   -5.3495    0.0000 C   0  0  0  0  0  0  0  0  0  0  0  0
    9.2313   -5.0893    0.0000 O   0  0  0  0  0  0  0  0  0  0  0  0
  1  2  2  0  0  0  0 
  1  3  2  0  0  0  0 
  1  4  1  0  0  0  0 
  4  5  1  0  0  0  0 
  5  6  2  0  0  0  0 
  6  7  1  0  0  0  0 
  7  8  2  0  0  0  0 
  8  9  1  0  0  0  0 
  9 10  2  0  0  0  0 
  5 10  1  0  0  0  0 
  8 11  1  0  0  0  0 
 11 12  2  0  0  0  0 
 11 13  1  0  0  0  0 
 13 14  2  0  0  0  0 
 14 15  1  0  0  0  0 
 15 16  2  0  0  0  0 
 16 17  1  0  0  0  0 
 17 18  2  0  0  0  0 
 18 19  1  0  0  0  0 
 18 20  1  0  0  0  0 
 20 21  2  0  0  0  0 
 15 21  1  0  0  0  0 
  1 22  1  0  0  0  0 
 22 23  2  0  0  0  0 
 23 24  1  0  0  0  0 
 24 25  2  0  0  0  0 
 25 26  1  0  0  0  0 
 26 27  2  0  0  0  0 
 22 27  1  0  0  0  0 
 25 28  1  0  0  0  0 
 29 28  1  0  0  0  0 
M  END
> <InChI>
InChI=1S/C22H19NO5S/c24-15-17-3-12-21(13-4-17)29(27,28)23-19-8-6-18(7-9-19)22(26)14-5-16-1-10-20(25)11-2-16/h1-14,23-25H,15H2/b14-5+

> <InChIKey>
CZAUUEPUFWKXTK-LHHJGKSTSA-N

> <SMILES>
S(=O)(=O)(NC1=CC=C(C=C1)C(=O)/C=C/C2=CC=C(O)C=C2)C3=CC=C(C=C3)CO

> <Synonyms>


> <PUBCHEM_CID>


> <Molecular_formula>
C22H19NO5S

> <Major_Isotope_Mass>
409.09839370799995

> <ALogP>
3.6516999999999986

> <Lipinski_Violations>
0

> <Insecticide_Likeness_Violations>
1

> <Post_Em_Herbicide_Likeness_Violations>
1

> <Metabolite_ID>
BTM00001

> <Reaction>
Allylic hydroxylation

> <Reaction_ID>
BTMR0071

> <Enzyme(s)>
CYP2C19
CYP2D6
CYP3A4

> <Biosystem>
HUMAN

> <Precursor_ID>
TEST0058_TSAHC

> <Precursor_SMILES>
S(=O)(=O)(NC1=CC=C(C=C1)C(=O)/C=C/C2=CC=C(O)C=C2)C3=CC=C(C=C3)C

> <Precursor_InChI>
InChI=1S/C22H19NO4S/c1-16-2-13-21(14-3-16)28(26,27)23-19-9-7-18(8-10-19)22(25)15-6-17-4-11-20(24)12-5-17/h2-15,23-24H,1H3/b15-6+

> <Precursor_InChIKey>
KDODYFOOJCIHGK-GIDUJCDVSA-N

> <Precursor_ALogP>
4.7424

> <Precursor_Major_Isotope_Mass>
393.1034

$$$$
BTM00009
  CDK     07192412412D

 29 31  0  0  0  0  0  0  0  0999 V2000
    3.8981   -0.7504    0.0000 S   0  0  0  0  0  0  0  0  0  0  0  0
    4.8624    0.3985    0.0000 O   0  0  0  0  0  0  0  0  0  0  0  0
    2.9341    0.3988    0.0000 O   0  0  0  0  0  0  0  0  0  0  0  0
    2.5989   -1.5002    0.0000 N   0  0  0  0  0  0  0  0  0  0  0  0
    1.3000   -0.7500    0.0000 C   0  0  0  0  0  0  0  0  0  0  0  0
    0.0000   -1.5000    0.0000 C   0  0  0  0  0  0  0  0  0  0  0  0
   -1.3000   -0.7500    0.0000 C   0  0  0  0  0  0  0  0  0  0  0  0
   -1.3000    0.7500    0.0000 C   0  0  0  0  0  0  0  0  0  0  0  0
    0.0000    1.5000    0.0000 C   0  0  0  0  0  0  0  0  0  0  0  0
    1.3000    0.7500    0.0000 C   0  0  0  0  0  0  0  0  0  0  0  0
   -2.5989    1.5002    0.0000 C   0  0  0  0  0  0  0  0  0  0  0  0
   -2.5987    3.0002    0.0000 O   0  0  0  0  0  0  0  0  0  0  0  0
   -3.8981    0.7504    0.0000 C   0  0  0  0  0  0  0  0  0  0  0  0
   -5.1970    1.5006    0.0000 C   0  0  0  0  0  0  0  0  0  0  0  0
   -6.4962    0.7508    0.0000 C   0  0  0  0  0  0  0  0  0  0  0  0
   -6.4890   -0.7492    0.0000 C   0  0  0  0  0  0  0  0  0  0  0  0
   -7.7554   -1.5052    0.0000 C   0  0  0  0  0  0  0  0  0  0  0  0
   -9.1090   -0.7616    0.0000 C   0  0  0  0  0  0  0  0  0  0  0  0
  -10.3981   -1.5285    0.0000 O   0  0  0  0  0  0  0  0  0  0  0  0
   -9.1161    0.7384    0.0000 C   0  0  0  0  0  0  0  0  0  0  0  0
   -7.7697    1.4948    0.0000 C   0  0  0  0  0  0  0  0  0  0  0  0
    4.8621   -1.8996    0.0000 C   0  0  0  0  0  0  0  0  0  0  0  0
    6.3394   -1.6396    0.0000 C   0  0  0  0  0  0  0  0  0  0  0  0
    7.3033   -2.7900    0.0000 C   0  0  0  0  0  0  0  0  0  0  0  0
    6.7900   -4.2003    0.0000 C   0  0  0  0  0  0  0  0  0  0  0  0
    5.3127   -4.4603    0.0000 C   0  0  0  0  0  0  0  0  0  0  0  0
    4.3488   -3.3100    0.0000 C   0  0  0  0  0  0  0  0  0  0  0  0
    7.7540   -5.3495    0.0000 C   0  0  0  0  0  0  0  0  0  0  0  0
   -3.8983   -0.7496    0.0000 O   0  0  0  0  0  0  0  0  0  0  0  0
  1  2  2  0  0  0  0 
  1  3  2  0  0  0  0 
  1  4  1  0  0  0  0 
  4  5  1  0  0  0  0 
  5  6  2  0  0  0  0 
  6  7  1  0  0  0  0 
  7  8  2  0  0  0  0 
  8  9  1  0  0  0  0 
  9 10  2  0  0  0  0 
  5 10  1  0  0  0  0 
  8 11  1  0  0  0  0 
 11 12  2  0  0  0  0 
 11 13  1  0  0  0  0 
 13 14  2  0  0  0  0 
 14 15  1  0  0  0  0 
 15 16  2  0  0  0  0 
 16 17  1  0  0  0  0 
 17 18  2  0  0  0  0 
 18 19  1  0  0  0  0 
 18 20  1  0  0  0  0 
 20 21  2  0  0  0  0 
 15 21  1  0  0  0  0 
  1 22  1  0  0  0  0 
 22 23  2  0  0  0  0 
 23 24  1  0  0  0  0 
 24 25  2  0  0  0  0 
 25 26  1  0  0  0  0 
 26 27  2  0  0  0  0 
 22 27  1  0  0  0  0 
 25 28  1  0  0  0  0 
 13 29  1  0  0  0  0 
M  END
> <InChI>
InChI=1S/C22H19NO5S/c1-15-2-12-20(13-3-15)29(27,28)23-18-8-6-17(7-9-18)22(26)21(25)14-16-4-10-19(24)11-5-16/h2-14,23-25H,1H3/b21-14-

> <InChIKey>
NCXYVLHQVLBXPU-STZFKDTASA-N

> <SMILES>
S(=O)(=O)(NC1=CC=C(C=C1)C(=O)/C(=C/C2=CC=C(O)C=C2)/O)C3=CC=C(C=C3)C

> <Synonyms>


> <PUBCHEM_CID>


> <Molecular_formula>
C22H19NO5S

> <Major_Isotope_Mass>
409.098393708

> <ALogP>
4.285999999999999

> <Lipinski_Violations>
0

> <Insecticide_Likeness_Violations>
1

> <Post_Em_Herbicide_Likeness_Violations>
1

> <Metabolite_ID>
BTM00009

> <Reaction>
Hydroxylation of carbon alpha to conjugated carbonyl

> <Reaction_ID>
BTMR1055

> <Enzyme(s)>
CYP3A4

> <Biosystem>
HUMAN

> <Precursor_ID>
TEST0058_TSAHC

> <Precursor_SMILES>
S(=O)(=O)(NC1=CC=C(C=C1)C(=O)/C=C/C2=CC=C(O)C=C2)C3=CC=C(C=C3)C

> <Precursor_InChI>
InChI=1S/C22H19NO4S/c1-16-2-13-21(14-3-16)28(26,27)23-19-9-7-18(8-10-19)22(25)15-6-17-4-11-20(24)12-5-17/h2-15,23-24H,1H3/b15-6+

> <Precursor_InChIKey>
KDODYFOOJCIHGK-GIDUJCDVSA-N

> <Precursor_ALogP>
4.7424

> <Precursor_Major_Isotope_Mass>
393.1034

$$$$
