BTM00001
  CDK     07192412392D

 20 21  0  0  1  0  0  0  0  0999 V2000
   -0.2505    3.7012    0.0000 O   0  0  0  0  0  0  0  0  0  0  0  0
    1.2279    3.9548    0.0000 C   0  0  0  0  0  0  0  0  0  0  0  0
    1.2205    2.4548    0.0000 C   0  0  1  0  0  0  0  0  0  0  0  0
   -0.0822    1.7112    0.0000 C   0  0  0  0  0  0  0  0  0  0  0  0
   -1.3775    2.4676    0.0000 N   0  0  0  0  0  0  0  0  0  0  0  0
   -2.6802    1.7240    0.0000 C   0  0  0  0  0  0  0  0  0  0  0  0
   -1.3701    3.9676    0.0000 C   0  0  0  0  0  0  0  0  0  0  0  0
    2.5159    1.6984    0.0000 C   0  0  0  0  0  0  0  0  0  0  0  0
    3.8149    2.4484    0.0000 C   0  0  0  0  0  0  0  0  0  0  0  0
    5.0994    1.7235    0.0000 C   0  0  0  0  0  0  0  0  0  0  0  0
    5.1249    0.1794    0.0000 C   0  0  0  0  0  0  0  0  0  0  0  0
    6.4301   -0.5598    0.0000 O   0  0  0  0  0  0  0  0  0  0  0  0
    3.8259   -0.5706    0.0000 C   0  0  0  0  0  0  0  0  0  0  0  0
    2.5014    0.2235    0.0000 C   0  0  0  0  0  0  0  0  0  0  0  0
    2.7046    3.6866    0.0000 C   0  0  0  0  0  0  0  0  0  0  0  0
    3.6743    4.8310    0.0000 C   0  0  0  0  0  0  0  0  0  0  0  0
    3.1673    6.2436    0.0000 C   0  0  0  0  0  0  0  0  0  0  0  0
    1.6907    6.5118    0.0000 C   0  0  0  0  0  0  0  0  0  0  0  0
    0.7210    5.3674    0.0000 C   0  0  0  0  0  0  0  0  0  0  0  0
   -0.0895    0.2112    0.0000 O   0  0  0  0  0  0  0  0  0  0  0  0
  1  2  1  0  0  0  0 
  3  2  1  0  0  0  0 
  3  4  1  0  0  0  0 
  4  5  1  0  0  0  0 
  5  6  1  0  0  0  0 
  5  7  1  0  0  0  0 
  3  8  1  6  0  0  0 
  8  9  2  0  0  0  0 
  9 10  1  0  0  0  0 
 10 11  2  0  0  0  0 
 11 12  1  0  0  0  0 
 11 13  1  0  0  0  0 
 13 14  2  0  0  0  0 
  8 14  1  0  0  0  0 
  2 15  1  0  0  0  0 
 15 16  1  0  0  0  0 
 16 17  1  0  0  0  0 
 17 18  1  0  0  0  0 
 18 19  1  0  0  0  0 
  2 19  1  0  0  0  0 
  4 20  1  0  0  0  0 
M  END
> <InChI>
InChI=1S/C16H25NO3/c1-17(2)15(19)14(12-6-8-13(18)9-7-12)16(20)10-4-3-5-11-16/h6-9,14-15,18-20H,3-5,10-11H2,1-2H3/t14-,15?/m1/s1

> <InChIKey>
MYEMEXOFEFQTCL-GICMACPYSA-N

> <SMILES>
OC1([C@@H](C(N(C)C)O)C2=CC=C(O)C=C2)CCCCC1

> <Synonyms>


> <PUBCHEM_CID>


> <Molecular_formula>
C16H25NO3

> <Major_Isotope_Mass>
279.18344365999997

> <ALogP>
0.01980000000000076

> <Lipinski_Violations>
0

> <Insecticide_Likeness_Violations>
1

> <Post_Em_Herbicide_Likeness_Violations>
1

> <Metabolite_ID>
BTM00001

> <Reaction>
Aliphatic hydroxylation of carbon alpha to secondary or tertiary alkyl-N

> <Reaction_ID>
BTMR1081

> <Enzyme(s)>
CYP2B6
CYP2C19
CYP2D6

> <Biosystem>
HUMAN

> <Precursor_ID>
TEST0029_Desvenlafaxine

> <Precursor_SMILES>
OC1([C@@H](CN(C)C)C2=CC=C(O)C=C2)CCCCC1

> <Precursor_InChI>
InChI=1S/C16H25NO2/c1-17(2)12-15(13-6-8-14(18)9-7-13)16(19)10-4-3-5-11-16/h6-9,15,18-19H,3-5,10-12H2,1-2H3/t15-/m0/s1

> <Precursor_InChIKey>
KYYIDSXMWOZKMP-HNNXBMFYSA-N

> <Precursor_ALogP>
0.359499

> <Precursor_Major_Isotope_Mass>
263.1885

$$$$
BTM00002
  CDK     07192412392D

 20 21  0  0  0  0  0  0  0  0999 V2000
    2.0471    0.0666    0.0000 O   0  0  0  0  0  0  0  0  0  0  0  0
    3.5257    0.3195    0.0000 C   0  0  0  0  0  0  0  0  0  0  0  0
    3.0196    1.7315    0.0000 C   0  0  0  0  0  0  0  0  0  0  0  0
    3.0270    3.2315    0.0000 C   0  0  0  0  0  0  0  0  0  0  0  0
    4.3297    3.9751    0.0000 N   0  0  0  0  0  0  0  0  0  0  0  0
    4.3371    5.4751    0.0000 C   0  0  0  0  0  0  0  0  0  0  0  0
    5.6250    3.2187    0.0000 C   0  0  0  0  0  0  0  0  0  0  0  0
    1.3000    0.7500    0.0000 C   0  0  0  0  0  0  0  0  0  0  0  0
    1.3000   -0.7500    0.0000 C   0  0  0  0  0  0  0  0  0  0  0  0
    0.0300   -1.5000    0.0000 C   0  0  0  0  0  0  0  0  0  0  0  0
   -1.3200   -0.7500    0.0000 C   0  0  0  0  0  0  0  0  0  0  0  0
   -2.6128   -1.5107    0.0000 O   0  0  0  0  0  0  0  0  0  0  0  0
   -1.3200    0.7500    0.0000 C   0  0  0  0  0  0  0  0  0  0  0  0
    0.0300    1.5000    0.0000 C   0  0  0  0  0  0  0  0  0  0  0  0
    4.8289    1.0638    0.0000 C   0  0  0  0  0  0  0  0  0  0  0  0
    6.1242    0.3073    0.0000 C   0  0  0  0  0  0  0  0  0  0  0  0
    6.1162   -1.1935    0.0000 C   0  0  0  0  0  0  0  0  0  0  0  0
    4.8129   -1.9378    0.0000 C   0  0  0  0  0  0  0  0  0  0  0  0
    3.5176   -1.1813    0.0000 C   0  0  0  0  0  0  0  0  0  0  0  0
    4.4981    1.9847    0.0000 O   0  0  0  0  0  0  0  0  0  0  0  0
  1  2  1  0  0  0  0 
  3  2  1  0  0  0  0 
  3  4  1  0  0  0  0 
  4  5  1  0  0  0  0 
  5  6  1  0  0  0  0 
  5  7  1  0  0  0  0 
  3  8  1  0  0  0  0 
  8  9  2  0  0  0  0 
  9 10  1  0  0  0  0 
 10 11  2  0  0  0  0 
 11 12  1  0  0  0  0 
 11 13  1  0  0  0  0 
 13 14  2  0  0  0  0 
  8 14  1  0  0  0  0 
  2 15  1  0  0  0  0 
 15 16  1  0  0  0  0 
 16 17  1  0  0  0  0 
 17 18  1  0  0  0  0 
 18 19  1  0  0  0  0 
  2 19  1  0  0  0  0 
  3 20  1  0  0  0  0 
M  END
> <InChI>
InChI=1S/C16H25NO3/c1-17(2)12-16(20,13-6-8-14(18)9-7-13)15(19)10-4-3-5-11-15/h6-9,18-20H,3-5,10-12H2,1-2H3

> <InChIKey>
ONTSNMOTGNPGCW-UHFFFAOYSA-N

> <SMILES>
OC1(C(CN(C)C)(C2=CC=C(O)C=C2)O)CCCCC1

> <Synonyms>


> <PUBCHEM_CID>


> <Molecular_formula>
C16H25NO3

> <Major_Isotope_Mass>
279.18344365999997

> <ALogP>
-0.07960000000000206

> <Lipinski_Violations>
0

> <Insecticide_Likeness_Violations>
1

> <Post_Em_Herbicide_Likeness_Violations>
1

> <Metabolite_ID>
BTM00002

> <Reaction>
Allylic hydroxylation

> <Reaction_ID>
BTMR0071

> <Enzyme(s)>
CYP2B6
CYP2C19
CYP2D6
CYP3A4

> <Biosystem>
HUMAN

> <Precursor_ID>
TEST0029_Desvenlafaxine

> <Precursor_SMILES>
OC1([C@@H](CN(C)C)C2=CC=C(O)C=C2)CCCCC1

> <Precursor_InChI>
InChI=1S/C16H25NO2/c1-17(2)12-15(13-6-8-14(18)9-7-13)16(19)10-4-3-5-11-16/h6-9,15,18-19H,3-5,10-12H2,1-2H3/t15-/m0/s1

> <Precursor_InChIKey>
KYYIDSXMWOZKMP-HNNXBMFYSA-N

> <Precursor_ALogP>
0.359499

> <Precursor_Major_Isotope_Mass>
263.1885

$$$$
BTM00003
  CDK     07192412392D

 20 21  0  0  1  0  0  0  0  0999 V2000
    3.7278    0.3976    0.0000 O   0  0  0  0  0  0  0  0  0  0  0  0
    2.2506    0.1368    0.0000 C   0  0  0  0  0  0  0  0  0  0  0  0
    2.2506    1.6368    0.0000 C   0  0  1  0  0  0  0  0  0  0  0  0
    3.5497    2.3868    0.0000 C   0  0  0  0  0  0  0  0  0  0  0  0
    4.8487    1.6368    0.0000 N   0  0  0  0  0  0  0  0  0  0  0  0
    6.1477    2.3868    0.0000 C   0  0  0  0  0  0  0  0  0  0  0  0
    4.8487    0.1368    0.0000 C   0  0  0  0  0  0  0  0  0  0  0  0
    0.9516    2.3868    0.0000 C   0  0  0  0  0  0  0  0  0  0  0  0
    0.9521    3.8877    0.0000 C   0  0  0  0  0  0  0  0  0  0  0  0
   -0.3470    4.6377    0.0000 C   0  0  0  0  0  0  0  0  0  0  0  0
   -1.6465    3.8868    0.0000 C   0  0  0  0  0  0  0  0  0  0  0  0
   -2.9455    4.6368    0.0000 O   0  0  0  0  0  0  0  0  0  0  0  0
   -1.6470    2.3860    0.0000 C   0  0  0  0  0  0  0  0  0  0  0  0
   -0.3479    1.6360    0.0000 C   0  0  0  0  0  0  0  0  0  0  0  0
    0.7726    0.3978    0.0000 C   0  0  0  0  0  0  0  0  0  0  0  0
   -0.1914   -0.7514    0.0000 C   0  0  0  0  0  0  0  0  0  0  0  0
    0.3225   -2.1615    0.0000 C   0  0  0  0  0  0  0  0  0  0  0  0
    1.8005   -2.4224    0.0000 C   0  0  0  0  0  0  0  0  0  0  0  0
    2.7645   -1.2733    0.0000 C   0  0  0  0  0  0  0  0  0  0  0  0
   -2.9461    1.6362    0.0000 O   0  0  0  0  0  0  0  0  0  0  0  0
  1  2  1  0  0  0  0 
  3  2  1  0  0  0  0 
  3  4  1  6  0  0  0 
  4  5  1  0  0  0  0 
  5  6  1  0  0  0  0 
  5  7  1  0  0  0  0 
  3  8  1  0  0  0  0 
  8  9  2  0  0  0  0 
  9 10  1  0  0  0  0 
 10 11  2  0  0  0  0 
 11 12  1  0  0  0  0 
 11 13  1  0  0  0  0 
 13 14  2  0  0  0  0 
  8 14  1  0  0  0  0 
  2 15  1  0  0  0  0 
 15 16  1  0  0  0  0 
 16 17  1  0  0  0  0 
 17 18  1  0  0  0  0 
 18 19  1  0  0  0  0 
  2 19  1  0  0  0  0 
 20 13  1  0  0  0  0 
M  END
> <InChI>
InChI=1S/C16H25NO3/c1-17(2)11-13(16(20)8-4-3-5-9-16)12-6-7-14(18)15(19)10-12/h6-7,10,13,18-20H,3-5,8-9,11H2,1-2H3/t13-/m0/s1

> <InChIKey>
YEFVKRBTEMHJDG-ZDUSSCGKSA-N

> <SMILES>
OC1([C@@H](CN(C)C)C2=CC=C(O)C(=C2)O)CCCCC1

> <Synonyms>


> <PUBCHEM_CID>


> <Molecular_formula>
C16H25NO3

> <Major_Isotope_Mass>
279.18344366

> <ALogP>
0.09209999999999983

> <Lipinski_Violations>
0

> <Insecticide_Likeness_Violations>
1

> <Post_Em_Herbicide_Likeness_Violations>
1

> <Metabolite_ID>
BTM00003

> <Reaction>
O-Hydroxylation of phenol

> <Reaction_ID>
BTMR1037

> <Enzyme(s)>
CYP2B6
CYP2C9
CYP2C19
CYP2D6
CYP3A4

> <Biosystem>
HUMAN

> <Precursor_ID>
TEST0029_Desvenlafaxine

> <Precursor_SMILES>
OC1([C@@H](CN(C)C)C2=CC=C(O)C=C2)CCCCC1

> <Precursor_InChI>
InChI=1S/C16H25NO2/c1-17(2)12-15(13-6-8-14(18)9-7-13)16(19)10-4-3-5-11-16/h6-9,15,18-19H,3-5,10-12H2,1-2H3/t15-/m0/s1

> <Precursor_InChIKey>
KYYIDSXMWOZKMP-HNNXBMFYSA-N

> <Precursor_ALogP>
0.359499

> <Precursor_Major_Isotope_Mass>
263.1885

$$$$
BTM00004
  CDK     07192412392D

 17 18  0  0  1  0  0  0  0  0999 V2000
    1.4563    1.2998    0.0000 O   0  0  0  0  0  0  0  0  0  0  0  0
   -0.0221    1.0463    0.0000 C   0  0  0  0  0  0  0  0  0  0  0  0
   -0.0148    2.5463    0.0000 C   0  0  1  0  0  0  0  0  0  0  0  0
   -1.3101    3.3027    0.0000 C   0  0  0  0  0  0  0  0  0  0  0  0
    1.2880    3.2899    0.0000 C   0  0  0  0  0  0  0  0  0  0  0  0
    1.2880    4.7899    0.0000 C   0  0  0  0  0  0  0  0  0  0  0  0
    2.5580    5.5399    0.0000 C   0  0  0  0  0  0  0  0  0  0  0  0
    3.9080    4.7899    0.0000 C   0  0  0  0  0  0  0  0  0  0  0  0
    5.2008    5.5506    0.0000 O   0  0  0  0  0  0  0  0  0  0  0  0
    3.9080    3.2899    0.0000 C   0  0  0  0  0  0  0  0  0  0  0  0
    2.5580    2.5399    0.0000 C   0  0  0  0  0  0  0  0  0  0  0  0
   -1.4988    1.3145    0.0000 C   0  0  0  0  0  0  0  0  0  0  0  0
   -2.4685    0.1701    0.0000 C   0  0  0  0  0  0  0  0  0  0  0  0
   -1.9616   -1.2425    0.0000 C   0  0  0  0  0  0  0  0  0  0  0  0
   -0.4849   -1.5107    0.0000 C   0  0  0  0  0  0  0  0  0  0  0  0
    0.4848   -0.3663    0.0000 C   0  0  0  0  0  0  0  0  0  0  0  0
   -2.6128    2.5591    0.0000 O   0  0  0  0  0  0  0  0  0  0  0  0
  1  2  1  0  0  0  0 
  3  2  1  0  0  0  0 
  3  4  1  1  0  0  0 
  3  5  1  0  0  0  0 
  5  6  2  0  0  0  0 
  6  7  1  0  0  0  0 
  7  8  2  0  0  0  0 
  8  9  1  0  0  0  0 
  8 10  1  0  0  0  0 
 10 11  2  0  0  0  0 
  5 11  1  0  0  0  0 
  2 12  1  0  0  0  0 
 12 13  1  0  0  0  0 
 13 14  1  0  0  0  0 
 14 15  1  0  0  0  0 
 15 16  1  0  0  0  0 
  2 16  1  0  0  0  0 
  4 17  2  0  0  0  0 
M  END
> <InChI>
InChI=1S/C14H18O3/c15-10-13(11-4-6-12(16)7-5-11)14(17)8-2-1-3-9-14/h4-7,10,13,16-17H,1-3,8-9H2/t13-/m0/s1

> <InChIKey>
VQEJEHYUPFWBTJ-ZDUSSCGKSA-N

> <SMILES>
OC1([C@@H](C=O)C2=CC=C(O)C=C2)CCCCC1

> <Synonyms>


> <PUBCHEM_CID>


> <Molecular_formula>
C14H18O3

> <Major_Isotope_Mass>
234.12559443599997

> <ALogP>
0.0990999999999991

> <Lipinski_Violations>
0

> <Insecticide_Likeness_Violations>
0

> <Post_Em_Herbicide_Likeness_Violations>
0

> <Metabolite_ID>
BTM00004

> <Reaction>
N-Dealkylation of acyclic tertiary amine

> <Reaction_ID>
BTMR1142

> <Enzyme(s)>
CYP2B6
CYP2C9
CYP2C19
CYP2D6
CYP3A4

> <Biosystem>
HUMAN

> <Precursor_ID>
TEST0029_Desvenlafaxine

> <Precursor_SMILES>
OC1([C@@H](CN(C)C)C2=CC=C(O)C=C2)CCCCC1

> <Precursor_InChI>
InChI=1S/C16H25NO2/c1-17(2)12-15(13-6-8-14(18)9-7-13)16(19)10-4-3-5-11-16/h6-9,15,18-19H,3-5,10-12H2,1-2H3/t15-/m0/s1

> <Precursor_InChIKey>
KYYIDSXMWOZKMP-HNNXBMFYSA-N

> <Precursor_ALogP>
0.359499

> <Precursor_Major_Isotope_Mass>
263.1885

$$$$
BTM00005
  CDK     07192412392D

  3  2  0  0  0  0  0  0  0  0999 V2000
    1.2990   -0.7500    0.0000 N   0  0  0  0  0  0  0  0  0  0  0  0
    0.0000    0.0000    0.0000 C   0  0  0  0  0  0  0  0  0  0  0  0
    2.5981   -0.0000    0.0000 C   0  0  0  0  0  0  0  0  0  0  0  0
  1  2  1  0  0  0  0 
  1  3  1  0  0  0  0 
M  END
> <InChI>
InChI=1S/C2H7N/c1-3-2/h3H,1-2H3

> <InChIKey>
ROSDSFDQCJNGOL-UHFFFAOYSA-N

> <SMILES>
N(C)C

> <Synonyms>


> <PUBCHEM_CID>


> <Molecular_formula>
C2H7N

> <Major_Isotope_Mass>
45.057849224

> <ALogP>
-0.21580000000000035

> <Lipinski_Violations>
0

> <Insecticide_Likeness_Violations>
0

> <Post_Em_Herbicide_Likeness_Violations>
0

> <Metabolite_ID>
BTM00005

> <Reaction>
N-Dealkylation of acyclic tertiary amine

> <Reaction_ID>
BTMR1142

> <Enzyme(s)>
CYP2B6
CYP2C9
CYP2C19
CYP2D6
CYP3A4

> <Biosystem>
HUMAN

> <Precursor_ID>
TEST0029_Desvenlafaxine

> <Precursor_SMILES>
OC1([C@@H](CN(C)C)C2=CC=C(O)C=C2)CCCCC1

> <Precursor_InChI>
InChI=1S/C16H25NO2/c1-17(2)12-15(13-6-8-14(18)9-7-13)16(19)10-4-3-5-11-16/h6-9,15,18-19H,3-5,10-12H2,1-2H3/t15-/m0/s1

> <Precursor_InChIKey>
KYYIDSXMWOZKMP-HNNXBMFYSA-N

> <Precursor_ALogP>
0.359499

> <Precursor_Major_Isotope_Mass>
263.1885

$$$$
BTM00006
  CDK     07192412392D

 18 19  0  0  1  0  0  0  0  0999 V2000
   -0.2505    3.7012    0.0000 O   0  0  0  0  0  0  0  0  0  0  0  0
    1.2279    3.9548    0.0000 C   0  0  0  0  0  0  0  0  0  0  0  0
    1.2205    2.4548    0.0000 C   0  0  1  0  0  0  0  0  0  0  0  0
   -0.0822    1.7112    0.0000 C   0  0  0  0  0  0  0  0  0  0  0  0
   -1.3775    2.4676    0.0000 N   0  0  0  0  0  0  0  0  0  0  0  0
   -2.6802    1.7240    0.0000 C   0  0  0  0  0  0  0  0  0  0  0  0
    2.5159    1.6984    0.0000 C   0  0  0  0  0  0  0  0  0  0  0  0
    3.8149    2.4484    0.0000 C   0  0  0  0  0  0  0  0  0  0  0  0
    5.0994    1.7235    0.0000 C   0  0  0  0  0  0  0  0  0  0  0  0
    5.1249    0.1794    0.0000 C   0  0  0  0  0  0  0  0  0  0  0  0
    6.4301   -0.5598    0.0000 O   0  0  0  0  0  0  0  0  0  0  0  0
    3.8259   -0.5706    0.0000 C   0  0  0  0  0  0  0  0  0  0  0  0
    2.5014    0.2235    0.0000 C   0  0  0  0  0  0  0  0  0  0  0  0
    2.7046    3.6866    0.0000 C   0  0  0  0  0  0  0  0  0  0  0  0
    3.6743    4.8310    0.0000 C   0  0  0  0  0  0  0  0  0  0  0  0
    3.1673    6.2436    0.0000 C   0  0  0  0  0  0  0  0  0  0  0  0
    1.6907    6.5118    0.0000 C   0  0  0  0  0  0  0  0  0  0  0  0
    0.7210    5.3674    0.0000 C   0  0  0  0  0  0  0  0  0  0  0  0
  1  2  1  0  0  0  0 
  3  2  1  0  0  0  0 
  3  4  1  6  0  0  0 
  4  5  1  0  0  0  0 
  5  6  1  0  0  0  0 
  3  7  1  0  0  0  0 
  7  8  2  0  0  0  0 
  8  9  1  0  0  0  0 
  9 10  2  0  0  0  0 
 10 11  1  0  0  0  0 
 10 12  1  0  0  0  0 
 12 13  2  0  0  0  0 
  7 13  1  0  0  0  0 
  2 14  1  0  0  0  0 
 14 15  1  0  0  0  0 
 15 16  1  0  0  0  0 
 16 17  1  0  0  0  0 
 17 18  1  0  0  0  0 
  2 18  1  0  0  0  0 
M  END
> <InChI>
InChI=1S/C15H23NO2/c1-16-11-14(12-5-7-13(17)8-6-12)15(18)9-3-2-4-10-15/h5-8,14,16-18H,2-4,9-11H2,1H3/t14-/m0/s1

> <InChIKey>
MMSWXJSQCAEDLK-AWEZNQCLSA-N

> <SMILES>
OC1([C@@H](CNC)C2=CC=C(O)C=C2)CCCCC1

> <Synonyms>


> <PUBCHEM_CID>


> <Molecular_formula>
C15H23NO2

> <Major_Isotope_Mass>
249.172878976

> <ALogP>
-0.176400000000002

> <Lipinski_Violations>
0

> <Insecticide_Likeness_Violations>
1

> <Post_Em_Herbicide_Likeness_Violations>
1

> <Metabolite_ID>
BTM00006

> <Reaction>
N-Dealkylation of acyclic tertiary amine

> <Reaction_ID>
BTMR1142

> <Enzyme(s)>
CYP2B6
CYP2C9
CYP2C19
CYP2D6
CYP3A4

> <Biosystem>
HUMAN

> <Precursor_ID>
TEST0029_Desvenlafaxine

> <Precursor_SMILES>
OC1([C@@H](CN(C)C)C2=CC=C(O)C=C2)CCCCC1

> <Precursor_InChI>
InChI=1S/C16H25NO2/c1-17(2)12-15(13-6-8-14(18)9-7-13)16(19)10-4-3-5-11-16/h6-9,15,18-19H,3-5,10-12H2,1-2H3/t15-/m0/s1

> <Precursor_InChIKey>
KYYIDSXMWOZKMP-HNNXBMFYSA-N

> <Precursor_ALogP>
0.359499

> <Precursor_Major_Isotope_Mass>
263.1885

$$$$
BTM00002
  CDK     07192412392D

 20 21  0  0  0  0  0  0  0  0999 V2000
    2.0471    0.0666    0.0000 O   0  0  0  0  0  0  0  0  0  0  0  0
    3.5257    0.3195    0.0000 C   0  0  0  0  0  0  0  0  0  0  0  0
    3.0196    1.7315    0.0000 C   0  0  0  0  0  0  0  0  0  0  0  0
    3.0270    3.2315    0.0000 C   0  0  0  0  0  0  0  0  0  0  0  0
    4.3297    3.9751    0.0000 N   0  0  0  0  0  0  0  0  0  0  0  0
    4.3371    5.4751    0.0000 C   0  0  0  0  0  0  0  0  0  0  0  0
    5.6250    3.2187    0.0000 C   0  0  0  0  0  0  0  0  0  0  0  0
    1.3000    0.7500    0.0000 C   0  0  0  0  0  0  0  0  0  0  0  0
    1.3000   -0.7500    0.0000 C   0  0  0  0  0  0  0  0  0  0  0  0
    0.0300   -1.5000    0.0000 C   0  0  0  0  0  0  0  0  0  0  0  0
   -1.3200   -0.7500    0.0000 C   0  0  0  0  0  0  0  0  0  0  0  0
   -2.6128   -1.5107    0.0000 O   0  0  0  0  0  0  0  0  0  0  0  0
   -1.3200    0.7500    0.0000 C   0  0  0  0  0  0  0  0  0  0  0  0
    0.0300    1.5000    0.0000 C   0  0  0  0  0  0  0  0  0  0  0  0
    4.8289    1.0638    0.0000 C   0  0  0  0  0  0  0  0  0  0  0  0
    6.1242    0.3073    0.0000 C   0  0  0  0  0  0  0  0  0  0  0  0
    6.1162   -1.1935    0.0000 C   0  0  0  0  0  0  0  0  0  0  0  0
    4.8129   -1.9378    0.0000 C   0  0  0  0  0  0  0  0  0  0  0  0
    3.5176   -1.1813    0.0000 C   0  0  0  0  0  0  0  0  0  0  0  0
    4.4981    1.9847    0.0000 O   0  0  0  0  0  0  0  0  0  0  0  0
  1  2  1  0  0  0  0 
  3  2  1  0  0  0  0 
  3  4  1  0  0  0  0 
  4  5  1  0  0  0  0 
  5  6  1  0  0  0  0 
  5  7  1  0  0  0  0 
  3  8  1  0  0  0  0 
  8  9  2  0  0  0  0 
  9 10  1  0  0  0  0 
 10 11  2  0  0  0  0 
 11 12  1  0  0  0  0 
 11 13  1  0  0  0  0 
 13 14  2  0  0  0  0 
  8 14  1  0  0  0  0 
  2 15  1  0  0  0  0 
 15 16  1  0  0  0  0 
 16 17  1  0  0  0  0 
 17 18  1  0  0  0  0 
 18 19  1  0  0  0  0 
  2 19  1  0  0  0  0 
  3 20  1  0  0  0  0 
M  END
> <InChI>
InChI=1S/C16H25NO3/c1-17(2)12-16(20,13-6-8-14(18)9-7-13)15(19)10-4-3-5-11-15/h6-9,18-20H,3-5,10-12H2,1-2H3

> <InChIKey>
ONTSNMOTGNPGCW-UHFFFAOYSA-N

> <SMILES>
OC1(C(CN(C)C)(C2=CC=C(O)C=C2)O)CCCCC1

> <Synonyms>


> <PUBCHEM_CID>


> <Molecular_formula>
C16H25NO3

> <Major_Isotope_Mass>
279.18344365999997

> <ALogP>
-0.07960000000000206

> <Lipinski_Violations>
0

> <Insecticide_Likeness_Violations>
1

> <Post_Em_Herbicide_Likeness_Violations>
1

> <Metabolite_ID>
BTM00002

> <Reaction>
Hydroxylation of non-terminal aliphatic carbon adjacent to aromatic ring

> <Reaction_ID>
BTMR1077

> <Enzyme(s)>
CYP2C9
CYP2D6
CYP3A4

> <Biosystem>
HUMAN

> <Precursor_ID>
TEST0029_Desvenlafaxine

> <Precursor_SMILES>
OC1([C@@H](CN(C)C)C2=CC=C(O)C=C2)CCCCC1

> <Precursor_InChI>
InChI=1S/C16H25NO2/c1-17(2)12-15(13-6-8-14(18)9-7-13)16(19)10-4-3-5-11-16/h6-9,15,18-19H,3-5,10-12H2,1-2H3/t15-/m0/s1

> <Precursor_InChIKey>
KYYIDSXMWOZKMP-HNNXBMFYSA-N

> <Precursor_ALogP>
0.359499

> <Precursor_Major_Isotope_Mass>
263.1885

$$$$
BTM00007
  CDK     07192412392D

 20 21  0  0  1  0  0  0  0  0999 V2000
    0.0970    3.5006    0.0000 O   0  0  0  0  0  0  0  0  0  0  0  0
    1.5754    3.7542    0.0000 C   0  0  0  0  0  0  0  0  0  0  0  0
    1.5680    2.2542    0.0000 C   0  0  1  0  0  0  0  0  0  0  0  0
    0.2653    1.5106    0.0000 C   0  0  0  0  0  0  0  0  0  0  0  0
   -1.0300    2.2670    0.0000 N   0  0  0  0  0  0  0  0  0  0  0  0
   -2.3327    1.5234    0.0000 C   0  0  0  0  0  0  0  0  0  0  0  0
   -1.0227    3.7669    0.0000 C   0  0  0  0  0  0  0  0  0  0  0  0
    2.8633    1.4978    0.0000 C   0  0  0  0  0  0  0  0  0  0  0  0
    4.1624    2.2478    0.0000 C   0  0  0  0  0  0  0  0  0  0  0  0
    5.4469    1.5229    0.0000 C   0  0  0  0  0  0  0  0  0  0  0  0
    5.4724   -0.0212    0.0000 C   0  0  0  0  0  0  0  0  0  0  0  0
    6.7776   -0.7605    0.0000 O   0  0  0  0  0  0  0  0  0  0  0  0
    4.1733   -0.7712    0.0000 C   0  0  0  0  0  0  0  0  0  0  0  0
    2.8488    0.0229    0.0000 C   0  0  0  0  0  0  0  0  0  0  0  0
    1.0684    5.1668    0.0000 C   0  0  0  0  0  0  0  0  0  0  0  0
    2.0381    6.3112    0.0000 C   0  0  0  0  0  0  0  0  0  0  0  0
    3.5148    6.0430    0.0000 C   0  0  0  0  0  0  0  0  0  0  0  0
    4.0218    4.6304    0.0000 C   0  0  0  0  0  0  0  0  0  0  0  0
    3.0521    3.4860    0.0000 C   0  0  0  0  0  0  0  0  0  0  0  0
   -0.4076    5.4341    0.0000 O   0  0  0  0  0  0  0  0  0  0  0  0
  1  2  1  0  0  0  0 
  3  2  1  0  0  0  0 
  3  4  1  6  0  0  0 
  4  5  1  0  0  0  0 
  5  6  1  0  0  0  0 
  5  7  1  0  0  0  0 
  3  8  1  0  0  0  0 
  8  9  2  0  0  0  0 
  9 10  1  0  0  0  0 
 10 11  2  0  0  0  0 
 11 12  1  0  0  0  0 
 11 13  1  0  0  0  0 
 13 14  2  0  0  0  0 
  8 14  1  0  0  0  0 
  2 15  1  0  0  0  0 
 15 16  1  0  0  0  0 
 16 17  1  0  0  0  0 
 17 18  1  0  0  0  0 
 18 19  1  0  0  0  0 
  2 19  1  0  0  0  0 
 20 15  1  0  0  0  0 
M  END
> <InChI>
InChI=1S/C16H25NO3/c1-17(2)11-14(12-6-8-13(18)9-7-12)16(20)10-4-3-5-15(16)19/h6-9,14-15,18-20H,3-5,10-11H2,1-2H3/t14-,15?,16?/m0/s1

> <InChIKey>
DNOYRYUPNADNQC-FHERZECASA-N

> <SMILES>
OC1([C@@H](CN(C)C)C2=CC=C(O)C=C2)C(CCCC1)O

> <Synonyms>


> <PUBCHEM_CID>


> <Molecular_formula>
C16H25NO3

> <Major_Isotope_Mass>
279.18344366

> <ALogP>
-0.40679999999999933

> <Lipinski_Violations>
0

> <Insecticide_Likeness_Violations>
1

> <Post_Em_Herbicide_Likeness_Violations>
1

> <Metabolite_ID>
BTM00007

> <Reaction>
Hydroxylation of alicyclic secondary carbon

> <Reaction_ID>
BTMR1068

> <Enzyme(s)>
CYP2C9
CYP2C19
CYP2D6
CYP3A4

> <Biosystem>
HUMAN

> <Precursor_ID>
TEST0029_Desvenlafaxine

> <Precursor_SMILES>
OC1([C@@H](CN(C)C)C2=CC=C(O)C=C2)CCCCC1

> <Precursor_InChI>
InChI=1S/C16H25NO2/c1-17(2)12-15(13-6-8-14(18)9-7-13)16(19)10-4-3-5-11-16/h6-9,15,18-19H,3-5,10-12H2,1-2H3/t15-/m0/s1

> <Precursor_InChIKey>
KYYIDSXMWOZKMP-HNNXBMFYSA-N

> <Precursor_ALogP>
0.359499

> <Precursor_Major_Isotope_Mass>
263.1885

$$$$
BTM00008
  CDK     07192412392D

 20 21  0  0  1  0  0  0  0  0999 V2000
    0.3267    1.0050    0.0000 O   0  0  0  0  0  0  0  0  0  0  0  0
    0.8468    2.4119    0.0000 C   0  0  0  0  0  0  0  0  0  0  0  0
    2.1422    1.6555    0.0000 C   0  0  1  0  0  0  0  0  0  0  0  0
    2.1348    0.1556    0.0000 C   0  0  0  0  0  0  0  0  0  0  0  0
    0.8321   -0.5880    0.0000 N   0  0  0  0  0  0  0  0  0  0  0  0
    0.8247   -2.0880    0.0000 C   0  0  0  0  0  0  0  0  0  0  0  0
   -0.4633    0.1683    0.0000 C   0  0  0  0  0  0  0  0  0  0  0  0
    3.4449    2.3991    0.0000 C   0  0  0  0  0  0  0  0  0  0  0  0
    3.4449    3.8991    0.0000 C   0  0  0  0  0  0  0  0  0  0  0  0
    4.7149    4.6491    0.0000 C   0  0  0  0  0  0  0  0  0  0  0  0
    6.0649    3.8991    0.0000 C   0  0  0  0  0  0  0  0  0  0  0  0
    7.3577    4.6598    0.0000 O   0  0  0  0  0  0  0  0  0  0  0  0
    6.0649    2.3991    0.0000 C   0  0  0  0  0  0  0  0  0  0  0  0
    4.7149    1.6491    0.0000 C   0  0  0  0  0  0  0  0  0  0  0  0
   -0.6299    2.6801    0.0000 C   0  0  0  0  0  0  0  0  0  0  0  0
   -1.1368    4.0927    0.0000 C   0  0  0  0  0  0  0  0  0  0  0  0
   -0.1671    5.2372    0.0000 C   0  0  0  0  0  0  0  0  0  0  0  0
    1.3096    4.9690    0.0000 C   0  0  0  0  0  0  0  0  0  0  0  0
    1.8165    3.5563    0.0000 C   0  0  0  0  0  0  0  0  0  0  0  0
   -2.6128    4.3601    0.0000 O   0  0  0  0  0  0  0  0  0  0  0  0
  1  2  1  0  0  0  0 
  3  2  1  0  0  0  0 
  3  4  1  6  0  0  0 
  4  5  1  0  0  0  0 
  5  6  1  0  0  0  0 
  5  7  1  0  0  0  0 
  3  8  1  0  0  0  0 
  8  9  2  0  0  0  0 
  9 10  1  0  0  0  0 
 10 11  2  0  0  0  0 
 11 12  1  0  0  0  0 
 11 13  1  0  0  0  0 
 13 14  2  0  0  0  0 
  8 14  1  0  0  0  0 
  2 15  1  0  0  0  0 
 15 16  1  0  0  0  0 
 16 17  1  0  0  0  0 
 17 18  1  0  0  0  0 
 18 19  1  0  0  0  0 
  2 19  1  0  0  0  0 
 20 16  1  0  0  0  0 
M  END
> <InChI>
InChI=1S/C16H25NO3/c1-17(2)11-15(12-5-7-13(18)8-6-12)16(20)9-3-4-14(19)10-16/h5-8,14-15,18-20H,3-4,9-11H2,1-2H3/t14?,15-,16?/m0/s1

> <InChIKey>
NNBHVXWBAPGROK-PCKAHOCUSA-N

> <SMILES>
OC1([C@@H](CN(C)C)C2=CC=C(O)C=C2)CC(CCC1)O

> <Synonyms>


> <PUBCHEM_CID>


> <Molecular_formula>
C16H25NO3

> <Major_Isotope_Mass>
279.18344366

> <ALogP>
0.13680000000000075

> <Lipinski_Violations>
0

> <Insecticide_Likeness_Violations>
1

> <Post_Em_Herbicide_Likeness_Violations>
1

> <Metabolite_ID>
BTM00008

> <Reaction>
Hydroxylation of alicyclic secondary carbon

> <Reaction_ID>
BTMR1068

> <Enzyme(s)>
CYP2C9
CYP2C19
CYP2D6
CYP3A4

> <Biosystem>
HUMAN

> <Precursor_ID>
TEST0029_Desvenlafaxine

> <Precursor_SMILES>
OC1([C@@H](CN(C)C)C2=CC=C(O)C=C2)CCCCC1

> <Precursor_InChI>
InChI=1S/C16H25NO2/c1-17(2)12-15(13-6-8-14(18)9-7-13)16(19)10-4-3-5-11-16/h6-9,15,18-19H,3-5,10-12H2,1-2H3/t15-/m0/s1

> <Precursor_InChIKey>
KYYIDSXMWOZKMP-HNNXBMFYSA-N

> <Precursor_ALogP>
0.359499

> <Precursor_Major_Isotope_Mass>
263.1885

$$$$
BTM00009
  CDK     07192412392D

 20 21  0  0  1  0  0  0  0  0999 V2000
   -1.1493   -0.4071    0.0000 O   0  0  0  0  0  0  0  0  0  0  0  0
   -0.6292    0.9999    0.0000 C   0  0  0  0  0  0  0  0  0  0  0  0
    0.6662    0.2435    0.0000 C   0  0  1  0  0  0  0  0  0  0  0  0
    0.6588   -1.2565    0.0000 C   0  0  0  0  0  0  0  0  0  0  0  0
   -0.6439   -2.0001    0.0000 N   0  0  0  0  0  0  0  0  0  0  0  0
   -0.6513   -3.5001    0.0000 C   0  0  0  0  0  0  0  0  0  0  0  0
   -1.9393   -1.2437    0.0000 C   0  0  0  0  0  0  0  0  0  0  0  0
    1.9689    0.9871    0.0000 C   0  0  0  0  0  0  0  0  0  0  0  0
    1.9689    2.4871    0.0000 C   0  0  0  0  0  0  0  0  0  0  0  0
    3.2389    3.2371    0.0000 C   0  0  0  0  0  0  0  0  0  0  0  0
    4.5889    2.4871    0.0000 C   0  0  0  0  0  0  0  0  0  0  0  0
    5.8817    3.2478    0.0000 O   0  0  0  0  0  0  0  0  0  0  0  0
    4.5889    0.9871    0.0000 C   0  0  0  0  0  0  0  0  0  0  0  0
    3.2389    0.2371    0.0000 C   0  0  0  0  0  0  0  0  0  0  0  0
   -2.1058    1.2681    0.0000 C   0  0  0  0  0  0  0  0  0  0  0  0
   -2.6128    2.6807    0.0000 C   0  0  0  0  0  0  0  0  0  0  0  0
   -1.6431    3.8251    0.0000 C   0  0  0  0  0  0  0  0  0  0  0  0
   -0.1664    3.5569    0.0000 C   0  0  0  0  0  0  0  0  0  0  0  0
    0.3405    2.1443    0.0000 C   0  0  0  0  0  0  0  0  0  0  0  0
   -2.1491    5.2372    0.0000 O   0  0  0  0  0  0  0  0  0  0  0  0
  1  2  1  0  0  0  0 
  3  2  1  0  0  0  0 
  3  4  1  6  0  0  0 
  4  5  1  0  0  0  0 
  5  6  1  0  0  0  0 
  5  7  1  0  0  0  0 
  3  8  1  0  0  0  0 
  8  9  2  0  0  0  0 
  9 10  1  0  0  0  0 
 10 11  2  0  0  0  0 
 11 12  1  0  0  0  0 
 11 13  1  0  0  0  0 
 13 14  2  0  0  0  0 
  8 14  1  0  0  0  0 
  2 15  1  0  0  0  0 
 15 16  1  0  0  0  0 
 16 17  1  0  0  0  0 
 17 18  1  0  0  0  0 
 18 19  1  0  0  0  0 
  2 19  1  0  0  0  0 
 20 17  1  0  0  0  0 
M  END
> <InChI>
InChI=1S/C16H25NO3/c1-17(2)11-15(12-3-5-13(18)6-4-12)16(20)9-7-14(19)8-10-16/h3-6,14-15,18-20H,7-11H2,1-2H3/t14?,15-,16?/m0/s1

> <InChIKey>
ZCPNCESOXFGVLN-PCKAHOCUSA-N

> <SMILES>
OC1([C@@H](CN(C)C)C2=CC=C(O)C=C2)CCC(CC1)O

> <Synonyms>


> <PUBCHEM_CID>


> <Molecular_formula>
C16H25NO3

> <Major_Isotope_Mass>
279.18344366

> <ALogP>
0.13680000000000075

> <Lipinski_Violations>
0

> <Insecticide_Likeness_Violations>
1

> <Post_Em_Herbicide_Likeness_Violations>
1

> <Metabolite_ID>
BTM00009

> <Reaction>
Hydroxylation of alicyclic secondary carbon

> <Reaction_ID>
BTMR1068

> <Enzyme(s)>
CYP2C9
CYP2C19
CYP2D6
CYP3A4

> <Biosystem>
HUMAN

> <Precursor_ID>
TEST0029_Desvenlafaxine

> <Precursor_SMILES>
OC1([C@@H](CN(C)C)C2=CC=C(O)C=C2)CCCCC1

> <Precursor_InChI>
InChI=1S/C16H25NO2/c1-17(2)12-15(13-6-8-14(18)9-7-13)16(19)10-4-3-5-11-16/h6-9,15,18-19H,3-5,10-12H2,1-2H3/t15-/m0/s1

> <Precursor_InChIKey>
KYYIDSXMWOZKMP-HNNXBMFYSA-N

> <Precursor_ALogP>
0.359499

> <Precursor_Major_Isotope_Mass>
263.1885

$$$$
BTM00010
  CDK     07192412392D

 20 21  0  0  1  0  0  0  0  0999 V2000
   -1.1494    1.0189    0.0000 O   0  0  0  0  0  0  0  0  0  0  0  0
   -0.6297    2.4260    0.0000 C   0  0  0  0  0  0  0  0  0  0  0  0
    0.6656    1.6696    0.0000 C   0  0  1  0  0  0  0  0  0  0  0  0
    0.6582    0.1696    0.0000 C   0  0  0  0  0  0  0  0  0  0  0  0
    1.9536   -0.5868    0.0000 N   0  0  0  0  0  0  0  0  0  0  0  0
    1.9462   -2.0868    0.0000 C   0  0  0  0  0  0  0  0  0  0  0  0
    2.4735    0.8202    0.0000 C   0  0  0  0  0  0  0  0  0  0  0  0
    1.9683    2.4132    0.0000 C   0  0  0  0  0  0  0  0  0  0  0  0
    1.9683    3.9132    0.0000 C   0  0  0  0  0  0  0  0  0  0  0  0
    3.2383    4.6632    0.0000 C   0  0  0  0  0  0  0  0  0  0  0  0
    4.5883    3.9132    0.0000 C   0  0  0  0  0  0  0  0  0  0  0  0
    5.8811    4.6739    0.0000 O   0  0  0  0  0  0  0  0  0  0  0  0
    4.5883    2.4132    0.0000 C   0  0  0  0  0  0  0  0  0  0  0  0
    3.2383    1.6632    0.0000 C   0  0  0  0  0  0  0  0  0  0  0  0
    0.3409    3.5707    0.0000 C   0  0  0  0  0  0  0  0  0  0  0  0
   -0.1654    4.9827    0.0000 C   0  0  0  0  0  0  0  0  0  0  0  0
   -1.6422    5.2499    0.0000 C   0  0  0  0  0  0  0  0  0  0  0  0
   -2.6128    4.1052    0.0000 C   0  0  0  0  0  0  0  0  0  0  0  0
   -2.1066    2.6932    0.0000 C   0  0  0  0  0  0  0  0  0  0  0  0
    3.4295   -0.8545    0.0000 O   0  0  0  0  0  0  0  0  0  0  0  0
  1  2  1  0  0  0  0 
  3  2  1  0  0  0  0 
  3  4  1  6  0  0  0 
  4  5  1  0  0  0  0 
  5  6  1  0  0  0  0 
  5  7  1  0  0  0  0 
  3  8  1  0  0  0  0 
  8  9  2  0  0  0  0 
  9 10  1  0  0  0  0 
 10 11  2  0  0  0  0 
 11 12  1  0  0  0  0 
 11 13  1  0  0  0  0 
 13 14  2  0  0  0  0 
  8 14  1  0  0  0  0 
  2 15  1  0  0  0  0 
 15 16  1  0  0  0  0 
 16 17  1  0  0  0  0 
 17 18  1  0  0  0  0 
 18 19  1  0  0  0  0 
  2 19  1  0  0  0  0 
  5 20  1  0  0  0  0 
M  CHG  1   5   1
M  CHG  1  20  -1
M  END
> <InChI>
InChI=1S/C16H25NO3/c1-17(2,20)12-15(13-6-8-14(18)9-7-13)16(19)10-4-3-5-11-16/h6-9,15,18-19H,3-5,10-12H2,1-2H3/t15-/m0/s1

> <InChIKey>
CZFVXEWRFNKSSC-HNNXBMFYSA-N

> <SMILES>
OC1([C@@H](C[N+](C)(C)[O-])C2=CC=C(O)C=C2)CCCCC1

> <Synonyms>


> <PUBCHEM_CID>


> <Molecular_formula>
C16H25NO3

> <Major_Isotope_Mass>
279.18344365999997

> <ALogP>
-0.04560000000000031

> <Lipinski_Violations>
0

> <Insecticide_Likeness_Violations>
0

> <Post_Em_Herbicide_Likeness_Violations>
0

> <Metabolite_ID>
BTM00010

> <Reaction>
N-Oxidation of aliphatic tertiary amine

> <Reaction_ID>
BTMR1100

> <Enzyme(s)>
CYP2D6
CYP3A4

> <Biosystem>
HUMAN

> <Precursor_ID>
TEST0029_Desvenlafaxine

> <Precursor_SMILES>
OC1([C@@H](CN(C)C)C2=CC=C(O)C=C2)CCCCC1

> <Precursor_InChI>
InChI=1S/C16H25NO2/c1-17(2)12-15(13-6-8-14(18)9-7-13)16(19)10-4-3-5-11-16/h6-9,15,18-19H,3-5,10-12H2,1-2H3/t15-/m0/s1

> <Precursor_InChIKey>
KYYIDSXMWOZKMP-HNNXBMFYSA-N

> <Precursor_ALogP>
0.359499

> <Precursor_Major_Isotope_Mass>
263.1885

$$$$
