BTM00001
  CDK     07192412392D

 12 12  0  0  0  0  0  0  0  0999 V2000
   -0.1378   -1.5002    0.0000 N   0  0  0  0  0  0  0  0  0  0  0  0
   -0.6511   -0.0908    0.0000 C   0  0  0  0  0  0  0  0  0  0  0  0
   -0.6513    1.4092    0.0000 C   0  0  0  0  0  0  0  0  0  0  0  0
    0.6476    2.1595    0.0000 C   0  0  0  0  0  0  0  0  0  0  0  0
    0.6476    3.6595    0.0000 C   0  0  0  0  0  0  0  0  0  0  0  0
    1.9476    4.4095    0.0000 C   0  0  0  0  0  0  0  0  0  0  0  0
    3.2476    3.6595    0.0000 C   0  0  0  0  0  0  0  0  0  0  0  0
    3.2476    2.1595    0.0000 C   0  0  0  0  0  0  0  0  0  0  0  0
    1.9476    1.4095    0.0000 C   0  0  0  0  0  0  0  0  0  0  0  0
   -1.9500   -0.8410    0.0000 C   0  0  0  0  0  0  0  0  0  0  0  0
    0.8261    0.1700    0.0000 C   0  0  0  0  0  0  0  0  0  0  0  0
   -0.6513    4.4097    0.0000 O   0  0  0  0  0  0  0  0  0  0  0  0
  1  2  1  0  0  0  0 
  2  3  1  0  0  0  0 
  3  4  1  0  0  0  0 
  4  5  2  0  0  0  0 
  5  6  1  0  0  0  0 
  6  7  2  0  0  0  0 
  7  8  1  0  0  0  0 
  8  9  2  0  0  0  0 
  4  9  1  0  0  0  0 
  2 10  1  0  0  0  0 
  2 11  1  0  0  0  0 
 12  5  1  0  0  0  0 
M  END
> <InChI>
InChI=1S/C10H15NO/c1-10(2,11)7-8-5-3-4-6-9(8)12/h3-6,12H,7,11H2,1-2H3

> <InChIKey>
UGLRLKAYSYHHID-UHFFFAOYSA-N

> <SMILES>
NC(CC1=C(C=CC=C1)O)(C)C

> <Synonyms>


> <PUBCHEM_CID>


> <Molecular_formula>
C10H15NO

> <Major_Isotope_Mass>
165.1153641

> <ALogP>
1.5722

> <Lipinski_Violations>
0

> <Insecticide_Likeness_Violations>
0

> <Post_Em_Herbicide_Likeness_Violations>
0

> <Metabolite_ID>
BTM00001

> <Reaction>
O-Hydroxylation of monosubstituted benzene

> <Reaction_ID>
BTMR1034

> <Enzyme(s)>
CYP1A2
CYP3A4

> <Biosystem>
HUMAN

> <Precursor_ID>
TEST0033_Phentermine

> <Precursor_SMILES>
NC(CC1=CC=CC=C1)(C)C

> <Precursor_InChI>
InChI=1S/C10H15N/c1-10(2,11)8-9-6-4-3-5-7-9/h3-7H,8,11H2,1-2H3

> <Precursor_InChIKey>
DHHVAGZRUROJKS-UHFFFAOYSA-N

> <Precursor_ALogP>
1.839599

> <Precursor_Major_Isotope_Mass>
149.1204

$$$$
BTM00002
  CDK     07192412392D

 12 12  0  0  0  0  0  0  0  0999 V2000
   -3.6066    0.7477    0.0000 N   0  0  0  0  0  0  0  0  0  0  0  0
   -2.6424    1.8967    0.0000 C   0  0  0  0  0  0  0  0  0  0  0  0
   -1.3433    2.6467    0.0000 C   0  0  0  0  0  0  0  0  0  0  0  0
   -0.0443    1.8967    0.0000 C   0  0  0  0  0  0  0  0  0  0  0  0
    1.2552    2.6476    0.0000 C   0  0  0  0  0  0  0  0  0  0  0  0
    2.5543    1.8976    0.0000 C   0  0  0  0  0  0  0  0  0  0  0  0
    2.5538    0.3967    0.0000 C   0  0  0  0  0  0  0  0  0  0  0  0
    1.2543   -0.3541    0.0000 C   0  0  0  0  0  0  0  0  0  0  0  0
   -0.0448    0.3959    0.0000 C   0  0  0  0  0  0  0  0  0  0  0  0
   -3.9414    2.6467    0.0000 C   0  0  0  0  0  0  0  0  0  0  0  0
   -1.6782    0.7477    0.0000 C   0  0  0  0  0  0  0  0  0  0  0  0
   -1.3433    4.1467    0.0000 O   0  0  0  0  0  0  0  0  0  0  0  0
  1  2  1  0  0  0  0 
  2  3  1  0  0  0  0 
  3  4  1  0  0  0  0 
  4  5  2  0  0  0  0 
  5  6  1  0  0  0  0 
  6  7  2  0  0  0  0 
  7  8  1  0  0  0  0 
  8  9  2  0  0  0  0 
  4  9  1  0  0  0  0 
  2 10  1  0  0  0  0 
  2 11  1  0  0  0  0 
 12  3  1  0  0  0  0 
M  END
> <InChI>
InChI=1S/C10H15NO/c1-10(2,11)9(12)8-6-4-3-5-7-8/h3-7,9,12H,11H2,1-2H3

> <InChIKey>
QFTWUVJQXPFWNM-UHFFFAOYSA-N

> <SMILES>
NC(C(C1=CC=CC=C1)O)(C)C

> <Synonyms>


> <PUBCHEM_CID>


> <Molecular_formula>
C10H15NO

> <Major_Isotope_Mass>
165.1153641

> <ALogP>
1.0076999999999994

> <Lipinski_Violations>
0

> <Insecticide_Likeness_Violations>
0

> <Post_Em_Herbicide_Likeness_Violations>
0

> <Metabolite_ID>
BTM00002

> <Reaction>
Hydroxylation of non-terminal aliphatic carbon adjacent to aromatic ring

> <Reaction_ID>
BTMR1077

> <Enzyme(s)>
CYP1A2
CYP2D6
CYP3A4

> <Biosystem>
HUMAN

> <Precursor_ID>
TEST0033_Phentermine

> <Precursor_SMILES>
NC(CC1=CC=CC=C1)(C)C

> <Precursor_InChI>
InChI=1S/C10H15N/c1-10(2,11)8-9-6-4-3-5-7-9/h3-7H,8,11H2,1-2H3

> <Precursor_InChIKey>
DHHVAGZRUROJKS-UHFFFAOYSA-N

> <Precursor_ALogP>
1.839599

> <Precursor_Major_Isotope_Mass>
149.1204

$$$$
BTM00001
  CDK     07192412392D

 12 12  0  0  0  0  0  0  0  0999 V2000
   -0.1378   -1.5002    0.0000 N   0  0  0  0  0  0  0  0  0  0  0  0
   -0.6511   -0.0908    0.0000 C   0  0  0  0  0  0  0  0  0  0  0  0
   -0.6513    1.4092    0.0000 C   0  0  0  0  0  0  0  0  0  0  0  0
    0.6476    2.1595    0.0000 C   0  0  0  0  0  0  0  0  0  0  0  0
    0.6476    3.6595    0.0000 C   0  0  0  0  0  0  0  0  0  0  0  0
    1.9476    4.4095    0.0000 C   0  0  0  0  0  0  0  0  0  0  0  0
    3.2476    3.6595    0.0000 C   0  0  0  0  0  0  0  0  0  0  0  0
    3.2476    2.1595    0.0000 C   0  0  0  0  0  0  0  0  0  0  0  0
    1.9476    1.4095    0.0000 C   0  0  0  0  0  0  0  0  0  0  0  0
   -1.9500   -0.8410    0.0000 C   0  0  0  0  0  0  0  0  0  0  0  0
    0.8261    0.1700    0.0000 C   0  0  0  0  0  0  0  0  0  0  0  0
   -0.6513    4.4097    0.0000 O   0  0  0  0  0  0  0  0  0  0  0  0
  1  2  1  0  0  0  0 
  2  3  1  0  0  0  0 
  3  4  1  0  0  0  0 
  4  5  2  0  0  0  0 
  5  6  1  0  0  0  0 
  6  7  2  0  0  0  0 
  7  8  1  0  0  0  0 
  8  9  2  0  0  0  0 
  4  9  1  0  0  0  0 
  2 10  1  0  0  0  0 
  2 11  1  0  0  0  0 
 12  5  1  0  0  0  0 
M  END
> <InChI>
InChI=1S/C10H15NO/c1-10(2,11)7-8-5-3-4-6-9(8)12/h3-6,12H,7,11H2,1-2H3

> <InChIKey>
UGLRLKAYSYHHID-UHFFFAOYSA-N

> <SMILES>
NC(CC1=C(C=CC=C1)O)(C)C

> <Synonyms>


> <PUBCHEM_CID>


> <Molecular_formula>
C10H15NO

> <Major_Isotope_Mass>
165.1153641

> <ALogP>
1.5722

> <Lipinski_Violations>
0

> <Insecticide_Likeness_Violations>
0

> <Post_Em_Herbicide_Likeness_Violations>
0

> <Metabolite_ID>
BTM00001

> <Reaction>
Hydroxylation of benzene on carbon ortho to electron donating group

> <Reaction_ID>
BTMR1045

> <Enzyme(s)>
CYP1A2
CYP2D6
CYP3A4

> <Biosystem>
HUMAN

> <Precursor_ID>
TEST0033_Phentermine

> <Precursor_SMILES>
NC(CC1=CC=CC=C1)(C)C

> <Precursor_InChI>
InChI=1S/C10H15N/c1-10(2,11)8-9-6-4-3-5-7-9/h3-7H,8,11H2,1-2H3

> <Precursor_InChIKey>
DHHVAGZRUROJKS-UHFFFAOYSA-N

> <Precursor_ALogP>
1.839599

> <Precursor_Major_Isotope_Mass>
149.1204

$$$$
BTM00003
  CDK     07192412392D

 12 12  0  0  0  0  0  0  0  0999 V2000
    3.9388    1.6673    0.0000 N   0  0  0  0  0  0  0  0  0  0  0  0
    2.9690    0.5230    0.0000 C   0  0  0  0  0  0  0  0  0  0  0  0
    1.6663   -0.2206    0.0000 C   0  0  0  0  0  0  0  0  0  0  0  0
    0.3710    0.5358    0.0000 C   0  0  0  0  0  0  0  0  0  0  0  0
   -0.9281   -0.2142    0.0000 C   0  0  0  0  0  0  0  0  0  0  0  0
   -2.2126    0.5107    0.0000 C   0  0  0  0  0  0  0  0  0  0  0  0
   -2.2381    2.0548    0.0000 C   0  0  0  0  0  0  0  0  0  0  0  0
   -0.9390    2.8048    0.0000 C   0  0  0  0  0  0  0  0  0  0  0  0
    0.3855    2.0107    0.0000 C   0  0  0  0  0  0  0  0  0  0  0  0
    4.2644   -0.2334    0.0000 C   0  0  0  0  0  0  0  0  0  0  0  0
    2.0105    1.6768    0.0000 C   0  0  0  0  0  0  0  0  0  0  0  0
   -3.5432    2.7941    0.0000 O   0  0  0  0  0  0  0  0  0  0  0  0
  1  2  1  0  0  0  0 
  2  3  1  0  0  0  0 
  3  4  1  0  0  0  0 
  4  5  2  0  0  0  0 
  5  6  1  0  0  0  0 
  6  7  2  0  0  0  0 
  7  8  1  0  0  0  0 
  8  9  2  0  0  0  0 
  4  9  1  0  0  0  0 
  2 10  1  0  0  0  0 
  2 11  1  0  0  0  0 
 12  7  1  0  0  0  0 
M  END
> <InChI>
InChI=1S/C10H15NO/c1-10(2,11)7-8-3-5-9(12)6-4-8/h3-6,12H,7,11H2,1-2H3

> <InChIKey>
DQFAEBUKXCRWHR-UHFFFAOYSA-N

> <SMILES>
NC(CC1=CC=C(C=C1)O)(C)C

> <Synonyms>


> <PUBCHEM_CID>


> <Molecular_formula>
C10H15NO

> <Major_Isotope_Mass>
165.1153641

> <ALogP>
1.5722

> <Lipinski_Violations>
0

> <Insecticide_Likeness_Violations>
0

> <Post_Em_Herbicide_Likeness_Violations>
0

> <Metabolite_ID>
BTM00003

> <Reaction>
Hydroxylation of benzene on carbon para to electron donating group

> <Reaction_ID>
BTMR1047

> <Enzyme(s)>
CYP1A2
CYP2D6
CYP3A4

> <Biosystem>
HUMAN

> <Precursor_ID>
TEST0033_Phentermine

> <Precursor_SMILES>
NC(CC1=CC=CC=C1)(C)C

> <Precursor_InChI>
InChI=1S/C10H15N/c1-10(2,11)8-9-6-4-3-5-7-9/h3-7H,8,11H2,1-2H3

> <Precursor_InChIKey>
DHHVAGZRUROJKS-UHFFFAOYSA-N

> <Precursor_ALogP>
1.839599

> <Precursor_Major_Isotope_Mass>
149.1204

$$$$
BTM00003
  CDK     07192412392D

 12 12  0  0  0  0  0  0  0  0999 V2000
    3.9388    1.6673    0.0000 N   0  0  0  0  0  0  0  0  0  0  0  0
    2.9690    0.5230    0.0000 C   0  0  0  0  0  0  0  0  0  0  0  0
    1.6663   -0.2206    0.0000 C   0  0  0  0  0  0  0  0  0  0  0  0
    0.3710    0.5358    0.0000 C   0  0  0  0  0  0  0  0  0  0  0  0
   -0.9281   -0.2142    0.0000 C   0  0  0  0  0  0  0  0  0  0  0  0
   -2.2126    0.5107    0.0000 C   0  0  0  0  0  0  0  0  0  0  0  0
   -2.2381    2.0548    0.0000 C   0  0  0  0  0  0  0  0  0  0  0  0
   -0.9390    2.8048    0.0000 C   0  0  0  0  0  0  0  0  0  0  0  0
    0.3855    2.0107    0.0000 C   0  0  0  0  0  0  0  0  0  0  0  0
    4.2644   -0.2334    0.0000 C   0  0  0  0  0  0  0  0  0  0  0  0
    2.0105    1.6768    0.0000 C   0  0  0  0  0  0  0  0  0  0  0  0
   -3.5432    2.7941    0.0000 O   0  0  0  0  0  0  0  0  0  0  0  0
  1  2  1  0  0  0  0 
  2  3  1  0  0  0  0 
  3  4  1  0  0  0  0 
  4  5  2  0  0  0  0 
  5  6  1  0  0  0  0 
  6  7  2  0  0  0  0 
  7  8  1  0  0  0  0 
  8  9  2  0  0  0  0 
  4  9  1  0  0  0  0 
  2 10  1  0  0  0  0 
  2 11  1  0  0  0  0 
 12  7  1  0  0  0  0 
M  END
> <InChI>
InChI=1S/C10H15NO/c1-10(2,11)7-8-3-5-9(12)6-4-8/h3-6,12H,7,11H2,1-2H3

> <InChIKey>
DQFAEBUKXCRWHR-UHFFFAOYSA-N

> <SMILES>
NC(CC1=CC=C(C=C1)O)(C)C

> <Synonyms>


> <PUBCHEM_CID>


> <Molecular_formula>
C10H15NO

> <Major_Isotope_Mass>
165.1153641

> <ALogP>
1.5722

> <Lipinski_Violations>
0

> <Insecticide_Likeness_Violations>
0

> <Post_Em_Herbicide_Likeness_Violations>
0

> <Metabolite_ID>
BTM00003

> <Reaction>
p-Hydroxylation of monosubstituted benzene

> <Reaction_ID>
BTMR1035

> <Enzyme(s)>
CYP1A2
CYP2B6
CYP2D6
CYP2E1
CYP3A4

> <Biosystem>
HUMAN

> <Precursor_ID>
TEST0033_Phentermine

> <Precursor_SMILES>
NC(CC1=CC=CC=C1)(C)C

> <Precursor_InChI>
InChI=1S/C10H15N/c1-10(2,11)8-9-6-4-3-5-7-9/h3-7H,8,11H2,1-2H3

> <Precursor_InChIKey>
DHHVAGZRUROJKS-UHFFFAOYSA-N

> <Precursor_ALogP>
1.839599

> <Precursor_Major_Isotope_Mass>
149.1204

$$$$
BTM00004
  CDK     07192412392D

 12 12  0  0  0  0  0  0  0  0999 V2000
   -3.2818    0.9352    0.0000 N   0  0  0  0  0  0  0  0  0  0  0  0
   -2.3176    2.0842    0.0000 C   0  0  0  0  0  0  0  0  0  0  0  0
   -1.0186    2.8342    0.0000 C   0  0  0  0  0  0  0  0  0  0  0  0
    0.2805    2.0842    0.0000 C   0  0  0  0  0  0  0  0  0  0  0  0
    1.5800    2.8351    0.0000 C   0  0  0  0  0  0  0  0  0  0  0  0
    2.8790    2.0851    0.0000 C   0  0  0  0  0  0  0  0  0  0  0  0
    2.8785    0.5842    0.0000 C   0  0  0  0  0  0  0  0  0  0  0  0
    1.5790   -0.1666    0.0000 C   0  0  0  0  0  0  0  0  0  0  0  0
    0.2800    0.5834    0.0000 C   0  0  0  0  0  0  0  0  0  0  0  0
   -1.3534    0.9352    0.0000 C   0  0  0  0  0  0  0  0  0  0  0  0
   -3.6167    2.8342    0.0000 C   0  0  0  0  0  0  0  0  0  0  0  0
   -4.9157    2.0842    0.0000 O   0  0  0  0  0  0  0  0  0  0  0  0
  1  2  1  0  0  0  0 
  2  3  1  0  0  0  0 
  3  4  1  0  0  0  0 
  4  5  2  0  0  0  0 
  5  6  1  0  0  0  0 
  6  7  2  0  0  0  0 
  7  8  1  0  0  0  0 
  8  9  2  0  0  0  0 
  4  9  1  0  0  0  0 
  2 10  1  0  0  0  0 
  2 11  1  0  0  0  0 
 12 11  1  0  0  0  0 
M  END
> <InChI>
InChI=1S/C10H15NO/c1-10(11,8-12)7-9-5-3-2-4-6-9/h2-6,12H,7-8,11H2,1H3

> <InChIKey>
HYRNHINXZCYRME-UHFFFAOYSA-N

> <SMILES>
NC(CC1=CC=CC=C1)(C)CO

> <Synonyms>


> <PUBCHEM_CID>


> <Molecular_formula>
C10H15NO

> <Major_Isotope_Mass>
165.1153641

> <ALogP>
0.9513999999999996

> <Lipinski_Violations>
0

> <Insecticide_Likeness_Violations>
0

> <Post_Em_Herbicide_Likeness_Violations>
0

> <Metabolite_ID>
BTM00004

> <Reaction>
Hydroxylation of terminal methyl

> <Reaction_ID>
BTMR1061

> <Enzyme(s)>
CYP1A2
CYP2B6
CYP2D6
CYP2E1
CYP3A4

> <Biosystem>
HUMAN

> <Precursor_ID>
TEST0033_Phentermine

> <Precursor_SMILES>
NC(CC1=CC=CC=C1)(C)C

> <Precursor_InChI>
InChI=1S/C10H15N/c1-10(2,11)8-9-6-4-3-5-7-9/h3-7H,8,11H2,1-2H3

> <Precursor_InChIKey>
DHHVAGZRUROJKS-UHFFFAOYSA-N

> <Precursor_ALogP>
1.839599

> <Precursor_Major_Isotope_Mass>
149.1204

$$$$
BTM00005
  CDK     07192412392D

 12 13  0  0  0  0  0  0  0  0999 V2000
   -2.1821   -2.3405    0.0000 N   0  0  0  0  0  0  0  0  0  0  0  0
   -1.6690   -3.7500    0.0000 C   0  0  0  0  0  0  0  0  0  0  0  0
   -0.3700   -3.0000    0.0000 C   0  0  0  0  0  0  0  0  0  0  0  0
   -0.3700   -1.5000    0.0000 C   0  0  0  0  0  0  0  0  0  0  0  0
    0.9300   -0.7500    0.0000 C   0  0  0  0  0  0  0  0  0  0  0  0
    0.9300    0.7500    0.0000 C   0  0  0  0  0  0  0  0  0  0  0  0
   -0.3700    1.5000    0.0000 C   0  0  0  0  0  0  0  0  0  0  0  0
   -1.6700    0.7500    0.0000 C   0  0  0  0  0  0  0  0  0  0  0  0
   -1.6700   -0.7500    0.0000 C   0  0  0  0  0  0  0  0  0  0  0  0
   -1.6690   -5.2500    0.0000 C   0  0  0  0  0  0  0  0  0  0  0  0
   -3.1462   -4.0105    0.0000 C   0  0  0  0  0  0  0  0  0  0  0  0
    2.2300   -0.0000    0.0000 O   0  0  0  0  0  0  0  0  0  0  0  0
  1  2  1  0  0  0  0 
  2  3  1  0  0  0  0 
  3  4  1  0  0  0  0 
  4  5  1  0  0  0  0 
  5  6  1  0  0  0  0 
  6  7  1  0  0  0  0 
  7  8  2  0  0  0  0 
  8  9  1  0  0  0  0 
  4  9  2  0  0  0  0 
  2 10  1  0  0  0  0 
  2 11  1  0  0  0  0 
  5 12  1  0  0  0  0 
 12  6  1  0  0  0  0 
M  END
> <InChI>
InChI=1S/C10H15NO/c1-10(2,11)6-7-4-3-5-8-9(7)12-8/h3-5,8-9H,6,11H2,1-2H3

> <InChIKey>
NZQBGZSJTROMBL-UHFFFAOYSA-N

> <SMILES>
NC(CC=1C2C(C=CC1)O2)(C)C

> <Synonyms>


> <PUBCHEM_CID>


> <Molecular_formula>
C10H15NO

> <Major_Isotope_Mass>
165.1153641

> <ALogP>
0.6504999999999994

> <Lipinski_Violations>
0

> <Insecticide_Likeness_Violations>
0

> <Post_Em_Herbicide_Likeness_Violations>
0

> <Metabolite_ID>
BTM00005

> <Reaction>
Epoxidation of arene

> <Reaction_ID>
BTMR1028

> <Enzyme(s)>
CYP1A2
CYP2B6
CYP2E1
CYP3A4

> <Biosystem>
HUMAN

> <Precursor_ID>
TEST0033_Phentermine

> <Precursor_SMILES>
NC(CC1=CC=CC=C1)(C)C

> <Precursor_InChI>
InChI=1S/C10H15N/c1-10(2,11)8-9-6-4-3-5-7-9/h3-7H,8,11H2,1-2H3

> <Precursor_InChIKey>
DHHVAGZRUROJKS-UHFFFAOYSA-N

> <Precursor_ALogP>
1.839599

> <Precursor_Major_Isotope_Mass>
149.1204

$$$$
BTM00002
  CDK     07192412392D

 12 12  0  0  0  0  0  0  0  0999 V2000
   -3.6066    0.7477    0.0000 N   0  0  0  0  0  0  0  0  0  0  0  0
   -2.6424    1.8967    0.0000 C   0  0  0  0  0  0  0  0  0  0  0  0
   -1.3433    2.6467    0.0000 C   0  0  0  0  0  0  0  0  0  0  0  0
   -0.0443    1.8967    0.0000 C   0  0  0  0  0  0  0  0  0  0  0  0
    1.2552    2.6476    0.0000 C   0  0  0  0  0  0  0  0  0  0  0  0
    2.5543    1.8976    0.0000 C   0  0  0  0  0  0  0  0  0  0  0  0
    2.5538    0.3967    0.0000 C   0  0  0  0  0  0  0  0  0  0  0  0
    1.2543   -0.3541    0.0000 C   0  0  0  0  0  0  0  0  0  0  0  0
   -0.0448    0.3959    0.0000 C   0  0  0  0  0  0  0  0  0  0  0  0
   -3.9414    2.6467    0.0000 C   0  0  0  0  0  0  0  0  0  0  0  0
   -1.6782    0.7477    0.0000 C   0  0  0  0  0  0  0  0  0  0  0  0
   -1.3433    4.1467    0.0000 O   0  0  0  0  0  0  0  0  0  0  0  0
  1  2  1  0  0  0  0 
  2  3  1  0  0  0  0 
  3  4  1  0  0  0  0 
  4  5  2  0  0  0  0 
  5  6  1  0  0  0  0 
  6  7  2  0  0  0  0 
  7  8  1  0  0  0  0 
  8  9  2  0  0  0  0 
  4  9  1  0  0  0  0 
  2 10  1  0  0  0  0 
  2 11  1  0  0  0  0 
 12  3  1  0  0  0  0 
M  END
> <InChI>
InChI=1S/C10H15NO/c1-10(2,11)9(12)8-6-4-3-5-7-8/h3-7,9,12H,11H2,1-2H3

> <InChIKey>
QFTWUVJQXPFWNM-UHFFFAOYSA-N

> <SMILES>
NC(C(C1=CC=CC=C1)O)(C)C

> <Synonyms>


> <PUBCHEM_CID>


> <Molecular_formula>
C10H15NO

> <Major_Isotope_Mass>
165.1153641

> <ALogP>
1.0076999999999994

> <Lipinski_Violations>
0

> <Insecticide_Likeness_Violations>
0

> <Post_Em_Herbicide_Likeness_Violations>
0

> <Metabolite_ID>
BTM00002

> <Reaction>
Allylic hydroxylation

> <Reaction_ID>
BTMR0071

> <Enzyme(s)>
CYP1A2
CYP2B6
CYP2D6
CYP3A4

> <Biosystem>
HUMAN

> <Precursor_ID>
TEST0033_Phentermine

> <Precursor_SMILES>
NC(CC1=CC=CC=C1)(C)C

> <Precursor_InChI>
InChI=1S/C10H15N/c1-10(2,11)8-9-6-4-3-5-7-9/h3-7H,8,11H2,1-2H3

> <Precursor_InChIKey>
DHHVAGZRUROJKS-UHFFFAOYSA-N

> <Precursor_ALogP>
1.839599

> <Precursor_Major_Isotope_Mass>
149.1204

$$$$
