BTM00001
  CDK     07192412382D

 36 38  0  0  1  0  0  0  0  0999 V2000
    9.0941   -0.6929    0.0000 F   0  0  0  0  0  0  0  0  0  0  0  0
    7.7996   -1.4507    0.0000 C   0  0  0  0  0  0  0  0  0  0  0  0
    6.8424   -2.6056    0.0000 F   0  0  0  0  0  0  0  0  0  0  0  0
    8.7707   -2.5939    0.0000 F   0  0  0  0  0  0  0  0  0  0  0  0
    6.4961   -0.7086    0.0000 C   0  0  0  0  0  0  0  0  0  0  0  0
    6.4870    0.7914    0.0000 O   0  0  0  0  0  0  0  0  0  0  0  0
    5.2016   -1.4664    0.0000 N   0  0  0  0  0  0  0  0  0  0  0  0
    3.8980   -0.7243    0.0000 C   0  0  2  0  0  0  0  0  0  0  0  0
    2.6036   -1.4821    0.0000 C   0  0  0  0  0  0  0  0  0  0  0  0
    2.6126   -2.9821    0.0000 O   0  0  0  0  0  0  0  0  0  0  0  0
    1.3000   -0.7400    0.0000 N   0  0  0  0  0  0  0  0  0  0  0  0
    0.0000   -1.5000    0.0000 C   0  0  1  0  0  0  0  0  0  0  0  0
   -1.2700   -0.7500    0.0000 C   0  0  1  0  0  0  0  0  0  0  0  0
   -1.3100    0.7400    0.0000 C   0  0  0  0  0  0  0  0  0  0  0  0
   -0.0100    1.5000    0.0000 C   0  0  1  0  0  0  0  0  0  0  0  0
    1.2900    0.7600    0.0000 C   0  0  0  0  0  0  0  0  0  0  0  0
   -1.8407    2.1430    0.0000 C   0  0  0  0  0  0  0  0  0  0  0  0
   -2.7818    0.4505    0.0000 C   0  0  0  0  0  0  0  0  0  0  0  0
   -0.0033   -3.0000    0.0000 C   0  0  0  0  0  0  0  0  0  0  0  0
    1.2941   -3.7529    0.0000 O   0  0  0  0  0  0  0  0  0  0  0  0
   -1.3040   -3.7471    0.0000 N   0  0  0  0  0  0  0  0  0  0  0  0
   -1.3073   -5.2471    0.0000 C   0  0  1  0  0  0  0  0  0  0  0  0
   -2.6080   -5.9943    0.0000 C   0  0  0  0  0  0  0  0  0  0  0  0
   -2.6113   -7.4943    0.0000 C   0  0  2  0  0  0  0  0  0  0  0  0
   -3.8264   -8.3738    0.0000 C   0  0  0  0  0  0  0  0  0  0  0  0
   -3.3664   -9.7938    0.0000 C   0  0  0  0  0  0  0  0  0  0  0  0
   -1.8702   -9.7971    0.0000 N   0  0  0  0  0  0  0  0  0  0  0  0
   -1.4061   -8.3748    0.0000 C   0  0  0  0  0  0  0  0  0  0  0  0
    0.0214   -7.9141    0.0000 O   0  0  0  0  0  0  0  0  0  0  0  0
   -0.0099   -6.0000    0.0000 C   0  0  0  0  0  0  0  0  0  0  0  0
    1.2875   -6.7529    0.0000 N   0  0  0  0  0  0  0  0  0  0  0  0
    3.8890    0.7757    0.0000 C   0  0  0  0  0  0  0  0  0  0  0  0
    3.3674    2.1821    0.0000 C   0  0  0  0  0  0  0  0  0  0  0  0
    2.4133    0.5063    0.0000 C   0  0  0  0  0  0  0  0  0  0  0  0
    5.1834    1.5335    0.0000 C   0  0  0  0  0  0  0  0  0  0  0  0
    5.1744    3.0335    0.0000 O   0  0  0  0  0  0  0  0  0  0  0  0
  1  2  1  0  0  0  0 
  2  3  1  0  0  0  0 
  2  4  1  0  0  0  0 
  2  5  1  0  0  0  0 
  5  6  2  0  0  0  0 
  5  7  1  0  0  0  0 
  8  7  1  6  0  0  0 
  8  9  1  0  0  0  0 
  9 10  2  0  0  0  0 
  9 11  1  0  0  0  0 
 11 12  1  0  0  0  0 
 12 13  1  0  0  0  0 
 13 14  1  1  0  0  0 
 14 15  1  0  0  0  0 
 13 15  1  0  0  0  0 
 15 16  1  1  0  0  0 
 11 16  1  0  0  0  0 
 14 17  1  0  0  0  0 
 14 18  1  0  0  0  0 
 12 19  1  6  0  0  0 
 19 20  2  0  0  0  0 
 19 21  1  0  0  0  0 
 22 21  1  6  0  0  0 
 22 23  1  0  0  0  0 
 24 23  1  1  0  0  0 
 24 25  1  0  0  0  0 
 25 26  1  0  0  0  0 
 26 27  1  0  0  0  0 
 27 28  1  0  0  0  0 
 24 28  1  0  0  0  0 
 28 29  2  0  0  0  0 
 22 30  1  0  0  0  0 
 30 31  3  0  0  0  0 
  8 32  1  0  0  0  0 
 32 33  1  0  0  0  0 
 32 34  1  0  0  0  0 
 32 35  1  0  0  0  0 
 36 35  1  0  0  0  0 
M  END
> <InChI>
InChI=1S/C23H32F3N5O5/c1-21(2,10-32)16(30-20(36)23(24,25)26)19(35)31-9-13-14(22(13,3)4)15(31)18(34)29-12(8-27)7-11-5-6-28-17(11)33/h11-16,32H,5-7,9-10H2,1-4H3,(H,28,33)(H,29,34)(H,30,36)/t11-,12-,13-,14-,15-,16+/m0/s1

> <InChIKey>
LOFFTBAELMOYKZ-OJFNHCPVSA-N

> <SMILES>
FC(F)(F)C(=O)N[C@H](C(=O)N1[C@@H]([C@H]2C([C@H]2C1)(C)C)C(=O)N[C@@H](C[C@@H]3CCNC3=O)C#N)C(C)(C)CO

> <Synonyms>


> <PUBCHEM_CID>


> <Molecular_formula>
C23H32F3N5O5

> <Major_Isotope_Mass>
515.235553784

> <ALogP>
-0.9922999999999988

> <Lipinski_Violations>
1

> <Insecticide_Likeness_Violations>
1

> <Post_Em_Herbicide_Likeness_Violations>
1

> <Metabolite_ID>
BTM00001

> <Reaction>
Hydroxylation of terminal methyl

> <Reaction_ID>
BTMR1061

> <Enzyme(s)>
CYP3A4

> <Biosystem>
HUMAN

> <Precursor_ID>
TEST0015_Nirmatrelvir

> <Precursor_SMILES>
FC(F)(F)C(=O)N[C@H](C(=O)N1[C@@H]([C@H]2C([C@H]2C1)(C)C)C(=O)N[C@@H](C[C@@H]3CCNC3=O)C#N)C(C)(C)C

> <Precursor_InChI>
InChI=1S/C23H32F3N5O4/c1-21(2,3)16(30-20(35)23(24,25)26)19(34)31-10-13-14(22(13,4)5)15(31)18(33)29-12(9-27)8-11-6-7-28-17(11)32/h11-16H,6-8,10H2,1-5H3,(H,28,32)(H,29,33)(H,30,35)/t11-,12-,13-,14-,15-,16+/m0/s1

> <Precursor_InChIKey>
LIENCHBZNNMNKG-OJFNHCPVSA-N

> <Precursor_ALogP>
0.098399

> <Precursor_Major_Isotope_Mass>
499.2406

$$$$
BTM00002
  CDK     07192412382D

 36 38  0  0  1  0  0  0  0  0999 V2000
    9.0941   -0.6929    0.0000 F   0  0  0  0  0  0  0  0  0  0  0  0
    7.7996   -1.4507    0.0000 C   0  0  0  0  0  0  0  0  0  0  0  0
    6.8424   -2.6056    0.0000 F   0  0  0  0  0  0  0  0  0  0  0  0
    8.7707   -2.5939    0.0000 F   0  0  0  0  0  0  0  0  0  0  0  0
    6.4961   -0.7086    0.0000 C   0  0  0  0  0  0  0  0  0  0  0  0
    6.4870    0.7914    0.0000 O   0  0  0  0  0  0  0  0  0  0  0  0
    5.2016   -1.4664    0.0000 N   0  0  0  0  0  0  0  0  0  0  0  0
    3.8980   -0.7243    0.0000 C   0  0  2  0  0  0  0  0  0  0  0  0
    2.6036   -1.4821    0.0000 C   0  0  0  0  0  0  0  0  0  0  0  0
    2.6126   -2.9821    0.0000 O   0  0  0  0  0  0  0  0  0  0  0  0
    1.3000   -0.7400    0.0000 N   0  0  0  0  0  0  0  0  0  0  0  0
    0.0000   -1.5000    0.0000 C   0  0  1  0  0  0  0  0  0  0  0  0
   -1.2700   -0.7500    0.0000 C   0  0  1  0  0  0  0  0  0  0  0  0
   -1.3100    0.7400    0.0000 C   0  0  0  0  0  0  0  0  0  0  0  0
   -0.0100    1.5000    0.0000 C   0  0  1  0  0  0  0  0  0  0  0  0
    1.2900    0.7600    0.0000 C   0  0  0  0  0  0  0  0  0  0  0  0
   -1.8407    2.1430    0.0000 C   0  0  0  0  0  0  0  0  0  0  0  0
   -2.7818    0.4505    0.0000 C   0  0  0  0  0  0  0  0  0  0  0  0
   -0.0033   -3.0000    0.0000 C   0  0  0  0  0  0  0  0  0  0  0  0
    1.2941   -3.7529    0.0000 O   0  0  0  0  0  0  0  0  0  0  0  0
   -1.3040   -3.7471    0.0000 N   0  0  0  0  0  0  0  0  0  0  0  0
   -1.3073   -5.2471    0.0000 C   0  0  1  0  0  0  0  0  0  0  0  0
   -2.6080   -5.9943    0.0000 C   0  0  0  0  0  0  0  0  0  0  0  0
   -2.6113   -7.4943    0.0000 C   0  0  2  0  0  0  0  0  0  0  0  0
   -3.8264   -8.3738    0.0000 C   0  0  0  0  0  0  0  0  0  0  0  0
   -3.3664   -9.7938    0.0000 C   0  0  0  0  0  0  0  0  0  0  0  0
   -1.8702   -9.7971    0.0000 N   0  0  0  0  0  0  0  0  0  0  0  0
   -1.4061   -8.3748    0.0000 C   0  0  0  0  0  0  0  0  0  0  0  0
    0.0214   -7.9141    0.0000 O   0  0  0  0  0  0  0  0  0  0  0  0
   -0.0099   -6.0000    0.0000 C   0  0  0  0  0  0  0  0  0  0  0  0
    1.2875   -6.7529    0.0000 N   0  0  0  0  0  0  0  0  0  0  0  0
    3.8890    0.7757    0.0000 C   0  0  0  0  0  0  0  0  0  0  0  0
    5.1834    1.5335    0.0000 C   0  0  0  0  0  0  0  0  0  0  0  0
    3.3674    2.1821    0.0000 C   0  0  0  0  0  0  0  0  0  0  0  0
    2.4133    0.5063    0.0000 C   0  0  0  0  0  0  0  0  0  0  0  0
   -3.7684    1.5803    0.0000 O   0  0  0  0  0  0  0  0  0  0  0  0
  1  2  1  0  0  0  0 
  2  3  1  0  0  0  0 
  2  4  1  0  0  0  0 
  2  5  1  0  0  0  0 
  5  6  2  0  0  0  0 
  5  7  1  0  0  0  0 
  8  7  1  6  0  0  0 
  8  9  1  0  0  0  0 
  9 10  2  0  0  0  0 
  9 11  1  0  0  0  0 
 11 12  1  0  0  0  0 
 12 13  1  0  0  0  0 
 13 14  1  1  0  0  0 
 14 15  1  0  0  0  0 
 13 15  1  0  0  0  0 
 15 16  1  1  0  0  0 
 11 16  1  0  0  0  0 
 14 17  1  0  0  0  0 
 14 18  1  0  0  0  0 
 12 19  1  6  0  0  0 
 19 20  2  0  0  0  0 
 19 21  1  0  0  0  0 
 22 21  1  6  0  0  0 
 22 23  1  0  0  0  0 
 24 23  1  1  0  0  0 
 24 25  1  0  0  0  0 
 25 26  1  0  0  0  0 
 26 27  1  0  0  0  0 
 27 28  1  0  0  0  0 
 24 28  1  0  0  0  0 
 28 29  2  0  0  0  0 
 22 30  1  0  0  0  0 
 30 31  3  0  0  0  0 
  8 32  1  0  0  0  0 
 32 33  1  0  0  0  0 
 32 34  1  0  0  0  0 
 32 35  1  0  0  0  0 
 36 18  1  0  0  0  0 
M  END
> <InChI>
InChI=1S/C23H32F3N5O5/c1-21(2,3)16(30-20(36)23(24,25)26)19(35)31-9-13-14(22(13,4)10-32)15(31)18(34)29-12(8-27)7-11-5-6-28-17(11)33/h11-16,32H,5-7,9-10H2,1-4H3,(H,28,33)(H,29,34)(H,30,36)/t11-,12-,13-,14-,15-,16+,22?/m0/s1

> <InChIKey>
CUEGVRNFVNRCFT-AQQDCXAQSA-N

> <SMILES>
FC(F)(F)C(=O)N[C@H](C(=O)N1[C@@H]([C@H]2C([C@H]2C1)(C)CO)C(=O)N[C@@H](C[C@@H]3CCNC3=O)C#N)C(C)(C)C

> <Synonyms>


> <PUBCHEM_CID>


> <Molecular_formula>
C23H32F3N5O5

> <Major_Isotope_Mass>
515.235553784

> <ALogP>
-0.9922999999999988

> <Lipinski_Violations>
1

> <Insecticide_Likeness_Violations>
1

> <Post_Em_Herbicide_Likeness_Violations>
1

> <Metabolite_ID>
BTM00002

> <Reaction>
Hydroxylation of methyl carbon adjacent to aliphatic ring

> <Reaction_ID>
BTMR0054

> <Enzyme(s)>
CYP3A4

> <Biosystem>
HUMAN

> <Precursor_ID>
TEST0015_Nirmatrelvir

> <Precursor_SMILES>
FC(F)(F)C(=O)N[C@H](C(=O)N1[C@@H]([C@H]2C([C@H]2C1)(C)C)C(=O)N[C@@H](C[C@@H]3CCNC3=O)C#N)C(C)(C)C

> <Precursor_InChI>
InChI=1S/C23H32F3N5O4/c1-21(2,3)16(30-20(35)23(24,25)26)19(34)31-10-13-14(22(13,4)5)15(31)18(33)29-12(9-27)8-11-6-7-28-17(11)32/h11-16H,6-8,10H2,1-5H3,(H,28,32)(H,29,33)(H,30,35)/t11-,12-,13-,14-,15-,16+/m0/s1

> <Precursor_InChIKey>
LIENCHBZNNMNKG-OJFNHCPVSA-N

> <Precursor_ALogP>
0.098399

> <Precursor_Major_Isotope_Mass>
499.2406

$$$$
BTM00003
  CDK     07192412382D

 36 38  0  0  1  0  0  0  0  0999 V2000
    9.0941   -0.6929    0.0000 F   0  0  0  0  0  0  0  0  0  0  0  0
    7.7996   -1.4507    0.0000 C   0  0  0  0  0  0  0  0  0  0  0  0
    6.8424   -2.6056    0.0000 F   0  0  0  0  0  0  0  0  0  0  0  0
    8.7707   -2.5939    0.0000 F   0  0  0  0  0  0  0  0  0  0  0  0
    6.4961   -0.7086    0.0000 C   0  0  0  0  0  0  0  0  0  0  0  0
    6.4870    0.7914    0.0000 O   0  0  0  0  0  0  0  0  0  0  0  0
    5.2016   -1.4664    0.0000 N   0  0  0  0  0  0  0  0  0  0  0  0
    3.8980   -0.7243    0.0000 C   0  0  2  0  0  0  0  0  0  0  0  0
    2.6036   -1.4821    0.0000 C   0  0  0  0  0  0  0  0  0  0  0  0
    2.6126   -2.9821    0.0000 O   0  0  0  0  0  0  0  0  0  0  0  0
    1.3000   -0.7400    0.0000 N   0  0  0  0  0  0  0  0  0  0  0  0
    0.0000   -1.5000    0.0000 C   0  0  1  0  0  0  0  0  0  0  0  0
   -1.2700   -0.7500    0.0000 C   0  0  1  0  0  0  0  0  0  0  0  0
   -1.3100    0.7400    0.0000 C   0  0  0  0  0  0  0  0  0  0  0  0
   -0.0100    1.5000    0.0000 C   0  0  1  0  0  0  0  0  0  0  0  0
    1.2900    0.7600    0.0000 C   0  0  0  0  0  0  0  0  0  0  0  0
   -1.8407    2.1430    0.0000 C   0  0  0  0  0  0  0  0  0  0  0  0
   -2.7818    0.4505    0.0000 C   0  0  0  0  0  0  0  0  0  0  0  0
   -0.0033   -3.0000    0.0000 C   0  0  0  0  0  0  0  0  0  0  0  0
    1.2941   -3.7529    0.0000 O   0  0  0  0  0  0  0  0  0  0  0  0
   -1.3040   -3.7471    0.0000 N   0  0  0  0  0  0  0  0  0  0  0  0
   -1.3073   -5.2471    0.0000 C   0  0  1  0  0  0  0  0  0  0  0  0
   -2.6080   -5.9943    0.0000 C   0  0  0  0  0  0  0  0  0  0  0  0
   -2.6113   -7.4943    0.0000 C   0  0  2  0  0  0  0  0  0  0  0  0
   -3.8264   -8.3738    0.0000 C   0  0  0  0  0  0  0  0  0  0  0  0
   -3.3664   -9.7938    0.0000 C   0  0  0  0  0  0  0  0  0  0  0  0
   -1.8644   -9.8052    0.0000 N   0  0  0  0  0  0  0  0  0  0  0  0
   -1.4061   -8.3748    0.0000 C   0  0  0  0  0  0  0  0  0  0  0  0
    0.0202   -7.9102    0.0000 O   0  0  0  0  0  0  0  0  0  0  0  0
   -0.0099   -6.0000    0.0000 C   0  0  0  0  0  0  0  0  0  0  0  0
    1.2875   -6.7529    0.0000 N   0  0  0  0  0  0  0  0  0  0  0  0
    3.8890    0.7757    0.0000 C   0  0  0  0  0  0  0  0  0  0  0  0
    5.1834    1.5335    0.0000 C   0  0  0  0  0  0  0  0  0  0  0  0
    3.3674    2.1821    0.0000 C   0  0  0  0  0  0  0  0  0  0  0  0
    2.4133    0.5063    0.0000 C   0  0  0  0  0  0  0  0  0  0  0  0
   -4.2532  -11.0036    0.0000 O   0  0  0  0  0  0  0  0  0  0  0  0
  1  2  1  0  0  0  0 
  2  3  1  0  0  0  0 
  2  4  1  0  0  0  0 
  2  5  1  0  0  0  0 
  5  6  2  0  0  0  0 
  5  7  1  0  0  0  0 
  8  7  1  6  0  0  0 
  8  9  1  0  0  0  0 
  9 10  2  0  0  0  0 
  9 11  1  0  0  0  0 
 11 12  1  0  0  0  0 
 12 13  1  0  0  0  0 
 13 14  1  1  0  0  0 
 14 15  1  0  0  0  0 
 13 15  1  0  0  0  0 
 15 16  1  1  0  0  0 
 11 16  1  0  0  0  0 
 14 17  1  0  0  0  0 
 14 18  1  0  0  0  0 
 12 19  1  6  0  0  0 
 19 20  2  0  0  0  0 
 19 21  1  0  0  0  0 
 22 21  1  6  0  0  0 
 22 23  1  0  0  0  0 
 24 23  1  1  0  0  0 
 24 25  1  0  0  0  0 
 25 26  1  0  0  0  0 
 26 27  1  0  0  0  0 
 27 28  1  0  0  0  0 
 24 28  1  0  0  0  0 
 28 29  2  0  0  0  0 
 22 30  1  0  0  0  0 
 30 31  3  0  0  0  0 
  8 32  1  0  0  0  0 
 32 33  1  0  0  0  0 
 32 34  1  0  0  0  0 
 32 35  1  0  0  0  0 
 36 26  1  0  0  0  0 
M  END
> <InChI>
InChI=1S/C23H32F3N5O5/c1-21(2,3)16(30-20(36)23(24,25)26)19(35)31-9-12-14(22(12,4)5)15(31)18(34)28-11(8-27)6-10-7-13(32)29-17(10)33/h10-16,32H,6-7,9H2,1-5H3,(H,28,34)(H,29,33)(H,30,36)/t10-,11+,12+,13?,14+,15+,16-/m1/s1

> <InChIKey>
AWSZFCNWIVMPPT-IJIOKDDCSA-N

> <SMILES>
FC(F)(F)C(=O)N[C@H](C(=O)N1[C@@H]([C@H]2C([C@H]2C1)(C)C)C(=O)N[C@@H](C[C@@H]3CC(NC3=O)O)C#N)C(C)(C)C

> <Synonyms>


> <PUBCHEM_CID>


> <Molecular_formula>
C23H32F3N5O5

> <Major_Isotope_Mass>
515.235553784

> <ALogP>
-0.24129999999999935

> <Lipinski_Violations>
1

> <Insecticide_Likeness_Violations>
1

> <Post_Em_Herbicide_Likeness_Violations>
1

> <Metabolite_ID>
BTM00003

> <Reaction>
Hydroxylation of heteroalicyclic secondary carbon

> <Reaction_ID>
BTMR1070

> <Enzyme(s)>
CYP3A4

> <Biosystem>
HUMAN

> <Precursor_ID>
TEST0015_Nirmatrelvir

> <Precursor_SMILES>
FC(F)(F)C(=O)N[C@H](C(=O)N1[C@@H]([C@H]2C([C@H]2C1)(C)C)C(=O)N[C@@H](C[C@@H]3CCNC3=O)C#N)C(C)(C)C

> <Precursor_InChI>
InChI=1S/C23H32F3N5O4/c1-21(2,3)16(30-20(35)23(24,25)26)19(34)31-10-13-14(22(13,4)5)15(31)18(33)29-12(9-27)8-11-6-7-28-17(11)32/h11-16H,6-8,10H2,1-5H3,(H,28,32)(H,29,33)(H,30,35)/t11-,12-,13-,14-,15-,16+/m0/s1

> <Precursor_InChIKey>
LIENCHBZNNMNKG-OJFNHCPVSA-N

> <Precursor_ALogP>
0.098399

> <Precursor_Major_Isotope_Mass>
499.2406

$$$$
BTM00004
  CDK     07192412382D

 36 38  0  0  1  0  0  0  0  0999 V2000
    9.0941   -0.6929    0.0000 F   0  0  0  0  0  0  0  0  0  0  0  0
    7.7996   -1.4507    0.0000 C   0  0  0  0  0  0  0  0  0  0  0  0
    6.8424   -2.6056    0.0000 F   0  0  0  0  0  0  0  0  0  0  0  0
    8.7707   -2.5939    0.0000 F   0  0  0  0  0  0  0  0  0  0  0  0
    6.4961   -0.7086    0.0000 C   0  0  0  0  0  0  0  0  0  0  0  0
    6.4870    0.7914    0.0000 O   0  0  0  0  0  0  0  0  0  0  0  0
    5.2016   -1.4664    0.0000 N   0  0  0  0  0  0  0  0  0  0  0  0
    3.8980   -0.7243    0.0000 C   0  0  2  0  0  0  0  0  0  0  0  0
    2.6036   -1.4821    0.0000 C   0  0  0  0  0  0  0  0  0  0  0  0
    2.6126   -2.9821    0.0000 O   0  0  0  0  0  0  0  0  0  0  0  0
    1.3000   -0.7400    0.0000 N   0  0  0  0  0  0  0  0  0  0  0  0
    0.0000   -1.5000    0.0000 C   0  0  1  0  0  0  0  0  0  0  0  0
   -1.2700   -0.7500    0.0000 C   0  0  1  0  0  0  0  0  0  0  0  0
   -1.3100    0.7400    0.0000 C   0  0  0  0  0  0  0  0  0  0  0  0
   -0.0100    1.5000    0.0000 C   0  0  1  0  0  0  0  0  0  0  0  0
    1.2900    0.7600    0.0000 C   0  0  0  0  0  0  0  0  0  0  0  0
   -1.8407    2.1430    0.0000 C   0  0  0  0  0  0  0  0  0  0  0  0
   -2.7818    0.4505    0.0000 C   0  0  0  0  0  0  0  0  0  0  0  0
   -0.0033   -3.0000    0.0000 C   0  0  0  0  0  0  0  0  0  0  0  0
    1.2941   -3.7529    0.0000 O   0  0  0  0  0  0  0  0  0  0  0  0
   -1.3040   -3.7471    0.0000 N   0  0  0  0  0  0  0  0  0  0  0  0
   -1.3073   -5.2471    0.0000 C   0  0  1  0  0  0  0  0  0  0  0  0
   -2.6080   -5.9943    0.0000 C   0  0  0  0  0  0  0  0  0  0  0  0
   -2.6113   -7.4943    0.0000 C   0  0  2  0  0  0  0  0  0  0  0  0
   -3.8264   -8.3738    0.0000 C   0  0  0  0  0  0  0  0  0  0  0  0
   -3.3664   -9.7938    0.0000 C   0  0  0  0  0  0  0  0  0  0  0  0
   -1.8702   -9.7971    0.0000 N   0  0  0  0  0  0  0  0  0  0  0  0
   -1.4061   -8.3748    0.0000 C   0  0  0  0  0  0  0  0  0  0  0  0
    0.0214   -7.9141    0.0000 O   0  0  0  0  0  0  0  0  0  0  0  0
   -0.0099   -6.0000    0.0000 C   0  0  0  0  0  0  0  0  0  0  0  0
    1.2875   -6.7529    0.0000 N   0  0  0  0  0  0  0  0  0  0  0  0
    3.8890    0.7757    0.0000 C   0  0  0  0  0  0  0  0  0  0  0  0
    5.1834    1.5335    0.0000 C   0  0  0  0  0  0  0  0  0  0  0  0
    3.3674    2.1821    0.0000 C   0  0  0  0  0  0  0  0  0  0  0  0
    2.4133    0.5063    0.0000 C   0  0  0  0  0  0  0  0  0  0  0  0
    2.5842    1.5183    0.0000 O   0  0  0  0  0  0  0  0  0  0  0  0
  1  2  1  0  0  0  0 
  2  3  1  0  0  0  0 
  2  4  1  0  0  0  0 
  2  5  1  0  0  0  0 
  5  6  2  0  0  0  0 
  5  7  1  0  0  0  0 
  8  7  1  6  0  0  0 
  8  9  1  0  0  0  0 
  9 10  2  0  0  0  0 
  9 11  1  0  0  0  0 
 11 12  1  0  0  0  0 
 12 13  1  0  0  0  0 
 13 14  1  1  0  0  0 
 14 15  1  0  0  0  0 
 13 15  1  0  0  0  0 
 15 16  1  1  0  0  0 
 11 16  1  0  0  0  0 
 14 17  1  0  0  0  0 
 14 18  1  0  0  0  0 
 12 19  1  6  0  0  0 
 19 20  2  0  0  0  0 
 19 21  1  0  0  0  0 
 22 21  1  6  0  0  0 
 22 23  1  0  0  0  0 
 24 23  1  1  0  0  0 
 24 25  1  0  0  0  0 
 25 26  1  0  0  0  0 
 26 27  1  0  0  0  0 
 27 28  1  0  0  0  0 
 24 28  1  0  0  0  0 
 28 29  2  0  0  0  0 
 22 30  1  0  0  0  0 
 30 31  3  0  0  0  0 
  8 32  1  0  0  0  0 
 32 33  1  0  0  0  0 
 32 34  1  0  0  0  0 
 32 35  1  0  0  0  0 
 36 16  1  0  0  0  0 
M  END
> <InChI>
InChI=1S/C23H32F3N5O5/c1-21(2,3)15(30-20(36)23(24,25)26)19(35)31-14(12-13(18(31)34)22(12,4)5)17(33)29-11(9-27)8-10-6-7-28-16(10)32/h10-15,18,34H,6-8H2,1-5H3,(H,28,32)(H,29,33)(H,30,36)/t10-,11-,12-,13+,14-,15+,18?/m0/s1

> <InChIKey>
GHDRKRLSPRAFHR-VKCXCASSSA-N

> <SMILES>
FC(F)(F)C(=O)N[C@H](C(=O)N1[C@@H]([C@H]2C([C@H]2C1O)(C)C)C(=O)N[C@@H](C[C@@H]3CCNC3=O)C#N)C(C)(C)C

> <Synonyms>


> <PUBCHEM_CID>


> <Molecular_formula>
C23H32F3N5O5

> <Major_Isotope_Mass>
515.235553784

> <ALogP>
-0.24129999999999935

> <Lipinski_Violations>
1

> <Insecticide_Likeness_Violations>
1

> <Post_Em_Herbicide_Likeness_Violations>
1

> <Metabolite_ID>
BTM00004

> <Reaction>
Hydroxylation of heteroalicyclic secondary carbon

> <Reaction_ID>
BTMR1070

> <Enzyme(s)>
CYP3A4

> <Biosystem>
HUMAN

> <Precursor_ID>
TEST0015_Nirmatrelvir

> <Precursor_SMILES>
FC(F)(F)C(=O)N[C@H](C(=O)N1[C@@H]([C@H]2C([C@H]2C1)(C)C)C(=O)N[C@@H](C[C@@H]3CCNC3=O)C#N)C(C)(C)C

> <Precursor_InChI>
InChI=1S/C23H32F3N5O4/c1-21(2,3)16(30-20(35)23(24,25)26)19(34)31-10-13-14(22(13,4)5)15(31)18(33)29-12(9-27)8-11-6-7-28-17(11)32/h11-16H,6-8,10H2,1-5H3,(H,28,32)(H,29,33)(H,30,35)/t11-,12-,13-,14-,15-,16+/m0/s1

> <Precursor_InChIKey>
LIENCHBZNNMNKG-OJFNHCPVSA-N

> <Precursor_ALogP>
0.098399

> <Precursor_Major_Isotope_Mass>
499.2406

$$$$
BTM00005
  CDK     07192412382D

 36 38  0  0  1  0  0  0  0  0999 V2000
  -14.2866   -0.6413    0.0000 F   0  0  0  0  0  0  0  0  0  0  0  0
  -12.9955   -1.4048    0.0000 C   0  0  0  0  0  0  0  0  0  0  0  0
  -12.0433   -2.5639    0.0000 F   0  0  0  0  0  0  0  0  0  0  0  0
  -13.9716   -2.5437    0.0000 F   0  0  0  0  0  0  0  0  0  0  0  0
  -11.6886   -0.6684    0.0000 C   0  0  0  0  0  0  0  0  0  0  0  0
  -11.6729    0.8315    0.0000 O   0  0  0  0  0  0  0  0  0  0  0  0
  -10.3975   -1.4320    0.0000 N   0  0  0  0  0  0  0  0  0  0  0  0
   -9.0907   -0.6956    0.0000 C   0  0  2  0  0  0  0  0  0  0  0  0
   -7.7996   -1.4592    0.0000 C   0  0  0  0  0  0  0  0  0  0  0  0
   -7.8153   -2.9591    0.0000 O   0  0  0  0  0  0  0  0  0  0  0  0
   -6.4928   -0.7228    0.0000 N   0  0  0  0  0  0  0  0  0  0  0  0
   -5.1961   -1.4885    0.0000 C   0  0  1  0  0  0  0  0  0  0  0  0
   -3.9228   -0.7441    0.0000 C   0  0  1  0  0  0  0  0  0  0  0  0
   -3.8763    0.7457    0.0000 C   0  0  0  0  0  0  0  0  0  0  0  0
   -5.1729    1.5114    0.0000 C   0  0  1  0  0  0  0  0  0  0  0  0
   -6.4762    0.7771    0.0000 C   0  0  0  0  0  0  0  0  0  0  0  0
   -3.3394    2.1463    0.0000 C   0  0  0  0  0  0  0  0  0  0  0  0
   -2.4058    0.4496    0.0000 C   0  0  0  0  0  0  0  0  0  0  0  0
   -5.1994   -2.9885    0.0000 C   0  0  0  0  0  0  0  0  0  0  0  0
   -6.5001   -3.7357    0.0000 O   0  0  0  0  0  0  0  0  0  0  0  0
   -3.9021   -3.7414    0.0000 N   0  0  0  0  0  0  0  0  0  0  0  0
   -3.9054   -5.2414    0.0000 C   0  0  1  0  0  0  0  0  0  0  0  0
   -2.6080   -5.9943    0.0000 C   0  0  0  0  0  0  0  0  0  0  0  0
   -2.6113   -7.4943    0.0000 C   0  0  0  0  0  0  0  0  0  0  0  0
   -2.9255   -8.9610    0.0000 C   0  0  0  0  0  0  0  0  0  0  0  0
   -1.6334   -9.7082    0.0000 C   0  0  0  0  0  0  0  0  0  0  0  0
   -0.5097   -8.7115    0.0000 N   0  0  0  0  0  0  0  0  0  0  0  0
   -1.1264   -7.3419    0.0000 C   0  0  0  0  0  0  0  0  0  0  0  0
   -0.3776   -6.0423    0.0000 O   0  0  0  0  0  0  0  0  0  0  0  0
   -5.2061   -5.9885    0.0000 C   0  0  0  0  0  0  0  0  0  0  0  0
   -6.5068   -6.7357    0.0000 N   0  0  0  0  0  0  0  0  0  0  0  0
   -9.0750    0.8043    0.0000 C   0  0  0  0  0  0  0  0  0  0  0  0
  -10.3661    1.5678    0.0000 C   0  0  0  0  0  0  0  0  0  0  0  0
   -8.5473    2.2084    0.0000 C   0  0  0  0  0  0  0  0  0  0  0  0
   -7.6006    0.5284    0.0000 C   0  0  0  0  0  0  0  0  0  0  0  0
   -4.1028   -7.3346    0.0000 O   0  0  0  0  0  0  0  0  0  0  0  0
  1  2  1  0  0  0  0 
  2  3  1  0  0  0  0 
  2  4  1  0  0  0  0 
  2  5  1  0  0  0  0 
  5  6  2  0  0  0  0 
  5  7  1  0  0  0  0 
  8  7  1  1  0  0  0 
  8  9  1  0  0  0  0 
  9 10  2  0  0  0  0 
  9 11  1  0  0  0  0 
 11 12  1  0  0  0  0 
 12 13  1  0  0  0  0 
 13 14  1  6  0  0  0 
 14 15  1  0  0  0  0 
 13 15  1  0  0  0  0 
 15 16  1  6  0  0  0 
 11 16  1  0  0  0  0 
 14 17  1  0  0  0  0 
 14 18  1  0  0  0  0 
 12 19  1  1  0  0  0 
 19 20  2  0  0  0  0 
 19 21  1  0  0  0  0 
 22 21  1  1  0  0  0 
 22 23  1  0  0  0  0 
 24 23  1  0  0  0  0 
 24 25  1  0  0  0  0 
 25 26  1  0  0  0  0 
 26 27  1  0  0  0  0 
 27 28  1  0  0  0  0 
 24 28  1  0  0  0  0 
 28 29  2  0  0  0  0 
 22 30  1  0  0  0  0 
 30 31  3  0  0  0  0 
  8 32  1  0  0  0  0 
 32 33  1  0  0  0  0 
 32 34  1  0  0  0  0 
 32 35  1  0  0  0  0 
 36 24  1  0  0  0  0 
M  END
> <InChI>
InChI=1S/C23H32F3N5O5/c1-20(2,3)15(30-19(35)23(24,25)26)17(33)31-10-12-13(21(12,4)5)14(31)16(32)29-11(9-27)8-22(36)6-7-28-18(22)34/h11-15,36H,6-8,10H2,1-5H3,(H,28,34)(H,29,32)(H,30,35)/t11-,12-,13-,14-,15+,22?/m0/s1

> <InChIKey>
SKZCVQGXXBFYNK-SXRPIRRHSA-N

> <SMILES>
FC(F)(F)C(=O)N[C@H](C(=O)N1[C@@H]([C@H]2C([C@H]2C1)(C)C)C(=O)N[C@@H](CC3(CCNC3=O)O)C#N)C(C)(C)C

> <Synonyms>


> <PUBCHEM_CID>


> <Molecular_formula>
C23H32F3N5O5

> <Major_Isotope_Mass>
515.235553784

> <ALogP>
-0.5020999999999991

> <Lipinski_Violations>
1

> <Insecticide_Likeness_Violations>
1

> <Post_Em_Herbicide_Likeness_Violations>
1

> <Metabolite_ID>
BTM00005

> <Reaction>
alpha-Hydroxylation of carbonyl group

> <Reaction_ID>
BTMR1054

> <Enzyme(s)>
CYP3A4

> <Biosystem>
HUMAN

> <Precursor_ID>
TEST0015_Nirmatrelvir

> <Precursor_SMILES>
FC(F)(F)C(=O)N[C@H](C(=O)N1[C@@H]([C@H]2C([C@H]2C1)(C)C)C(=O)N[C@@H](C[C@@H]3CCNC3=O)C#N)C(C)(C)C

> <Precursor_InChI>
InChI=1S/C23H32F3N5O4/c1-21(2,3)16(30-20(35)23(24,25)26)19(34)31-10-13-14(22(13,4)5)15(31)18(33)29-12(9-27)8-11-6-7-28-17(11)32/h11-16H,6-8,10H2,1-5H3,(H,28,32)(H,29,33)(H,30,35)/t11-,12-,13-,14-,15-,16+/m0/s1

> <Precursor_InChIKey>
LIENCHBZNNMNKG-OJFNHCPVSA-N

> <Precursor_ALogP>
0.098399

> <Precursor_Major_Isotope_Mass>
499.2406

$$$$
