BTM00001
  CDK     07192412432D

  6  6  0  0  0  0  0  0  0  0999 V2000
    1.8085   -0.6072    0.0000 C   0  0  0  0  0  0  0  0  0  0  0  0
    1.5482    0.8700    0.0000 C   0  0  0  0  0  0  0  0  0  0  0  0
    0.3989   -1.1200    0.0000 C   0  0  0  0  0  0  0  0  0  0  0  0
   -0.7500   -0.1555    0.0000 C   0  0  0  0  0  0  0  0  0  0  0  0
    3.3085   -0.6072    0.0000 C   0  0  0  0  0  0  0  0  0  0  0  0
    2.5585   -1.9072    0.0000 O   0  0  0  0  0  0  0  0  0  0  0  0
  1  2  1  0  0  0  0 
  1  3  1  0  0  0  0 
  3  4  2  0  0  0  0 
  1  5  1  0  0  0  0 
  1  6  1  0  0  0  0 
  6  5  1  0  0  0  0 
M  END
> <InChI>
InChI=1S/C5H8O/c1-3-5(2)4-6-5/h3H,1,4H2,2H3

> <InChIKey>
FVCDMHWSPLRYAB-UHFFFAOYSA-N

> <SMILES>
C1(C)(C=C)CO1

> <Synonyms>


> <PUBCHEM_CID>


> <Molecular_formula>
C5H8O

> <Major_Isotope_Mass>
84.057514876

> <ALogP>
0.7195999999999999

> <Lipinski_Violations>
0

> <Insecticide_Likeness_Violations>
0

> <Post_Em_Herbicide_Likeness_Violations>
0

> <Metabolite_ID>
BTM00001

> <Reaction>
Epoxidation of alkene

> <Reaction_ID>
BTMR0109

> <Enzyme(s)>
CYP2E1

> <Biosystem>
HUMAN

> <Precursor_ID>
TEST0086_Isoprene

> <Precursor_SMILES>
C(C)(C=C)=C

> <Precursor_InChI>
InChI=1S/C5H8/c1-4-5(2)3/h4H,1-2H2,3H3

> <Precursor_InChIKey>
RRHGJUQNOFWUDK-UHFFFAOYSA-N

> <Precursor_ALogP>
1.861400

> <Precursor_Major_Isotope_Mass>
68.06260

$$$$
BTM00002
  CDK     07192412432D

  6  6  0  0  0  0  0  0  0  0999 V2000
   -0.8877    1.2675    0.0000 C   0  0  0  0  0  0  0  0  0  0  0  0
   -2.1867    0.5175    0.0000 C   0  0  0  0  0  0  0  0  0  0  0  0
    0.4114    0.5175    0.0000 C   0  0  0  0  0  0  0  0  0  0  0  0
    1.9122    0.5170    0.0000 C   0  0  0  0  0  0  0  0  0  0  0  0
   -0.8877    2.7675    0.0000 C   0  0  0  0  0  0  0  0  0  0  0  0
    1.1622   -0.7820    0.0000 O   0  0  0  0  0  0  0  0  0  0  0  0
  1  2  1  0  0  0  0 
  1  3  1  0  0  0  0 
  3  4  1  0  0  0  0 
  1  5  2  0  0  0  0 
  3  6  1  0  0  0  0 
  6  4  1  0  0  0  0 
M  END
> <InChI>
InChI=1S/C5H8O/c1-4(2)5-3-6-5/h5H,1,3H2,2H3

> <InChIKey>
JZQHTTYHPIAPCZ-UHFFFAOYSA-N

> <SMILES>
C(C)(C1CO1)=C

> <Synonyms>


> <PUBCHEM_CID>


> <Molecular_formula>
C5H8O

> <Major_Isotope_Mass>
84.057514876

> <ALogP>
0.961

> <Lipinski_Violations>
0

> <Insecticide_Likeness_Violations>
0

> <Post_Em_Herbicide_Likeness_Violations>
0

> <Metabolite_ID>
BTM00002

> <Reaction>
Epoxidation of alkene

> <Reaction_ID>
BTMR0109

> <Enzyme(s)>
CYP2E1

> <Biosystem>
HUMAN

> <Precursor_ID>
TEST0086_Isoprene

> <Precursor_SMILES>
C(C)(C=C)=C

> <Precursor_InChI>
InChI=1S/C5H8/c1-4-5(2)3/h4H,1-2H2,3H3

> <Precursor_InChIKey>
RRHGJUQNOFWUDK-UHFFFAOYSA-N

> <Precursor_ALogP>
1.861400

> <Precursor_Major_Isotope_Mass>
68.06260

$$$$
