BTM00001
  CDK     07192412392D

 24 26  0  0  1  0  0  0  0  0999 V2000
    6.0338   -3.1445    0.0000 S   0  0  0  0  0  0  0  0  0  0  0  0
    4.6191   -3.6430    0.0000 O   0  0  0  0  0  0  0  0  0  0  0  0
    3.4800   -2.6670    0.0000 N   0  0  0  0  0  0  0  0  0  0  0  0
    1.0762   -3.0400    0.0000 C   0  0  1  0  0  0  0  0  0  0  0  0
    1.8262   -1.7410    0.0000 C   0  0  0  0  0  0  0  0  0  0  0  0
    1.0762   -0.4419    0.0000 N   0  0  0  0  0  0  0  0  0  0  0  0
   -0.4238   -0.4419    0.0000 C   0  0  1  0  0  0  0  0  0  0  0  0
   -1.1738   -1.7410    0.0000 C   0  0  0  0  0  0  0  0  0  0  0  0
   -0.4238   -3.0400    0.0000 C   0  0  0  0  0  0  0  0  0  0  0  0
   -1.1738    0.8571    0.0000 C   0  0  0  0  0  0  0  0  0  0  0  0
   -0.4238    2.1561    0.0000 O   0  0  0  0  0  0  0  0  0  0  0  0
   -2.6738    0.8571    0.0000 N   0  0  0  0  0  0  0  0  0  0  0  0
   -3.4238    2.1561    0.0000 C   0  0  0  0  0  0  0  0  0  0  0  0
   -2.6730    3.4557    0.0000 C   0  0  0  0  0  0  0  0  0  0  0  0
   -3.4230    4.7547    0.0000 C   0  0  0  0  0  0  0  0  0  0  0  0
   -4.9238    4.7542    0.0000 N   0  0  0  0  0  0  0  0  0  0  0  0
   -5.6746    3.4547    0.0000 C   0  0  0  0  0  0  0  0  0  0  0  0
   -4.9246    2.1557    0.0000 C   0  0  0  0  0  0  0  0  0  0  0  0
    3.4800   -0.8149    0.0000 C   0  0  0  0  0  0  0  0  0  0  0  0
    4.6191    0.1610    0.0000 O   0  0  0  0  0  0  0  0  0  0  0  0
    7.1729   -4.1204    0.0000 O   0  0  0  0  0  0  0  0  0  0  0  0
    7.1928   -2.1922    0.0000 O   0  0  0  0  0  0  0  0  0  0  0  0
    5.2972   -1.8378    0.0000 O   0  0  0  0  0  0  0  0  0  0  0  0
    3.3262   -1.7410    0.0000 O   0  0  0  0  0  0  0  0  0  0  0  0
  1  2  1  0  0  0  0 
  2  3  1  0  0  0  0 
  4  3  1  6  0  0  0 
  4  5  1  0  0  0  0 
  5  6  1  0  0  0  0 
  6  7  1  0  0  0  0 
  7  8  1  0  0  0  0 
  8  9  1  0  0  0  0 
  4  9  1  0  0  0  0 
  7 10  1  1  0  0  0 
 10 11  2  0  0  0  0 
 10 12  1  0  0  0  0 
 12 13  1  0  0  0  0 
 13 14  1  0  0  0  0 
 14 15  1  0  0  0  0 
 15 16  1  0  0  0  0 
 16 17  1  0  0  0  0 
 17 18  1  0  0  0  0 
 13 18  1  0  0  0  0 
  6 19  1  0  0  0  0 
  3 19  1  0  0  0  0 
 19 20  2  0  0  0  0 
  1 21  1  0  0  0  0 
  1 22  2  0  0  0  0 
  1 23  2  0  0  0  0 
 24  5  1  0  0  0  0 
M  CHG  1  16   1
M  CHG  1  21  -1
M  END
> <InChI>
InChI=1S/C12H20N4O7S/c17-10(14-7-3-5-13-6-4-7)8-1-2-9-11(18)15(8)12(19)16(9)23-24(20,21)22/h7-9,11,13,18H,1-6H2,(H,14,17)(H,20,21,22)/t8-,9+,11?/m0/s1

> <InChIKey>
WLSXPBFNQGINAX-VUHGHZMFSA-N

> <SMILES>
S(ON1[C@H]2C(N([C@@H](CC2)C(=O)NC3CC[NH2+]CC3)C1=O)O)([O-])(=O)=O

> <Synonyms>


> <PUBCHEM_CID>


> <Molecular_formula>
C12H20N4O7S

> <Major_Isotope_Mass>
364.10526998

> <ALogP>
-5.608099999999999

> <Lipinski_Violations>
0

> <Insecticide_Likeness_Violations>
1

> <Post_Em_Herbicide_Likeness_Violations>
1

> <Metabolite_ID>
BTM00001

> <Reaction>
Hydroxylation of heteroalicyclic secondary carbon

> <Reaction_ID>
BTMR1070

> <Enzyme(s)>
CYP3A4

> <Biosystem>
HUMAN

> <Precursor_ID>
TEST0028_Relebactam

> <Precursor_SMILES>
S(ON1[C@H]2C[N@]([C@@H](CC2)C(=O)NC3CC[NH2+]CC3)C1=O)([O-])(=O)=O

> <Precursor_InChI>
InChI=1S/C12H20N4O6S/c17-11(14-8-3-5-13-6-4-8)10-2-1-9-7-15(10)12(18)16(9)22-23(19,20)21/h8-10,13H,1-7H2,(H,14,17)(H,19,20,21)/t9-,10+/m1/s1

> <Precursor_InChIKey>
SMOBCLHAZXOKDQ-ZJUUUORDSA-N

> <Precursor_ALogP>
-5.26839

> <Precursor_Major_Isotope_Mass>
348.1103

$$$$
BTM00002
  CDK     07192412392D

 24 26  0  0  1  0  0  0  0  0999 V2000
    8.0323   -0.6059    0.0000 S   0  0  0  0  0  0  0  0  0  0  0  0
    7.0564   -1.7450    0.0000 O   0  0  0  0  0  0  0  0  0  0  0  0
    5.5819   -1.4693    0.0000 N   0  0  0  0  0  0  0  0  0  0  0  0
    3.6867   -2.9942    0.0000 C   0  0  1  0  0  0  0  0  0  0  0  0
    3.6867   -1.4942    0.0000 C   0  0  0  0  0  0  0  0  0  0  0  0
    2.3876   -0.7442    0.0000 N   0  0  0  0  0  0  0  0  0  0  0  0
    1.0886   -1.4942    0.0000 C   0  0  1  0  0  0  0  0  0  0  0  0
    1.0886   -2.9942    0.0000 C   0  0  0  0  0  0  0  0  0  0  0  0
    2.3876   -3.7442    0.0000 C   0  0  0  0  0  0  0  0  0  0  0  0
   -0.2105   -0.7442    0.0000 C   0  0  0  0  0  0  0  0  0  0  0  0
   -0.2105    0.7558    0.0000 O   0  0  0  0  0  0  0  0  0  0  0  0
   -1.5095   -1.4942    0.0000 N   0  0  0  0  0  0  0  0  0  0  0  0
   -2.8085   -0.7442    0.0000 C   0  0  0  0  0  0  0  0  0  0  0  0
   -2.8081    0.7566    0.0000 C   0  0  0  0  0  0  0  0  0  0  0  0
   -4.1071    1.5066    0.0000 C   0  0  0  0  0  0  0  0  0  0  0  0
   -5.4066    0.7558    0.0000 N   0  0  0  0  0  0  0  0  0  0  0  0
   -5.4071   -0.7451    0.0000 C   0  0  0  0  0  0  0  0  0  0  0  0
   -4.1081   -1.4951    0.0000 C   0  0  0  0  0  0  0  0  0  0  0  0
    4.6559    0.1347    0.0000 C   0  0  0  0  0  0  0  0  0  0  0  0
    5.1544    1.5494    0.0000 O   0  0  0  0  0  0  0  0  0  0  0  0
    9.5068   -0.8815    0.0000 O   0  0  0  0  0  0  0  0  0  0  0  0
    8.5598    0.7983    0.0000 O   0  0  0  0  0  0  0  0  0  0  0  0
    6.7411    0.1575    0.0000 O   0  0  0  0  0  0  0  0  0  0  0  0
   -4.1073    3.0066    0.0000 O   0  0  0  0  0  0  0  0  0  0  0  0
  1  2  1  0  0  0  0 
  2  3  1  0  0  0  0 
  4  3  1  6  0  0  0 
  4  5  1  0  0  0  0 
  5  6  1  0  0  0  0 
  6  7  1  0  0  0  0 
  7  8  1  0  0  0  0 
  8  9  1  0  0  0  0 
  4  9  1  0  0  0  0 
  7 10  1  1  0  0  0 
 10 11  2  0  0  0  0 
 10 12  1  0  0  0  0 
 12 13  1  0  0  0  0 
 13 14  1  0  0  0  0 
 14 15  1  0  0  0  0 
 15 16  1  0  0  0  0 
 16 17  1  0  0  0  0 
 17 18  1  0  0  0  0 
 13 18  1  0  0  0  0 
  6 19  1  0  0  0  0 
  3 19  1  0  0  0  0 
 19 20  2  0  0  0  0 
  1 21  1  0  0  0  0 
  1 22  2  0  0  0  0 
  1 23  2  0  0  0  0 
 24 15  1  0  0  0  0 
M  CHG  1  16   1
M  CHG  1  21  -1
M  END
> <InChI>
InChI=1S/C12H20N4O7S/c17-10-5-7(3-4-13-10)14-11(18)9-2-1-8-6-15(9)12(19)16(8)23-24(20,21)22/h7-10,13,17H,1-6H2,(H,14,18)(H,20,21,22)/t7?,8-,9+,10?/m1/s1

> <InChIKey>
XHDYZVLPGYCQPA-MXAZLMSGSA-N

> <SMILES>
S(ON1[C@H]2CN([C@@H](CC2)C(=O)NC3CC([NH2+]CC3)O)C1=O)([O-])(=O)=O

> <Synonyms>


> <PUBCHEM_CID>


> <Molecular_formula>
C12H20N4O7S

> <Major_Isotope_Mass>
364.10526998

> <ALogP>
-5.608099999999999

> <Lipinski_Violations>
0

> <Insecticide_Likeness_Violations>
1

> <Post_Em_Herbicide_Likeness_Violations>
1

> <Metabolite_ID>
BTM00002

> <Reaction>
Hydroxylation of heteroalicyclic secondary carbon

> <Reaction_ID>
BTMR1070

> <Enzyme(s)>
CYP3A4

> <Biosystem>
HUMAN

> <Precursor_ID>
TEST0028_Relebactam

> <Precursor_SMILES>
S(ON1[C@H]2C[N@]([C@@H](CC2)C(=O)NC3CC[NH2+]CC3)C1=O)([O-])(=O)=O

> <Precursor_InChI>
InChI=1S/C12H20N4O6S/c17-11(14-8-3-5-13-6-4-8)10-2-1-9-7-15(10)12(18)16(9)22-23(19,20)21/h8-10,13H,1-7H2,(H,14,17)(H,19,20,21)/t9-,10+/m1/s1

> <Precursor_InChIKey>
SMOBCLHAZXOKDQ-ZJUUUORDSA-N

> <Precursor_ALogP>
-5.26839

> <Precursor_Major_Isotope_Mass>
348.1103

$$$$
BTM00003
  CDK     07192412392D

 24 26  0  0  1  0  0  0  0  0999 V2000
    6.0338   -3.1445    0.0000 S   0  0  0  0  0  0  0  0  0  0  0  0
    4.6191   -3.6430    0.0000 O   0  0  0  0  0  0  0  0  0  0  0  0
    3.4800   -2.6670    0.0000 N   0  0  0  0  0  0  0  0  0  0  0  0
    1.0762   -3.0400    0.0000 C   0  0  1  0  0  0  0  0  0  0  0  0
    1.8262   -1.7410    0.0000 C   0  0  0  0  0  0  0  0  0  0  0  0
    1.0762   -0.4419    0.0000 N   0  0  0  0  0  0  0  0  0  0  0  0
   -0.4238   -0.4419    0.0000 C   0  0  1  0  0  0  0  0  0  0  0  0
   -1.1738   -1.7410    0.0000 C   0  0  0  0  0  0  0  0  0  0  0  0
   -0.4238   -3.0400    0.0000 C   0  0  0  0  0  0  0  0  0  0  0  0
   -1.1738    0.8571    0.0000 C   0  0  0  0  0  0  0  0  0  0  0  0
   -0.4238    2.1561    0.0000 O   0  0  0  0  0  0  0  0  0  0  0  0
   -2.6738    0.8571    0.0000 N   0  0  0  0  0  0  0  0  0  0  0  0
   -3.4238    2.1561    0.0000 C   0  0  0  0  0  0  0  0  0  0  0  0
   -2.6730    3.4557    0.0000 C   0  0  0  0  0  0  0  0  0  0  0  0
   -3.4230    4.7547    0.0000 C   0  0  0  0  0  0  0  0  0  0  0  0
   -4.9238    4.7542    0.0000 N   0  0  0  0  0  0  0  0  0  0  0  0
   -5.6746    3.4547    0.0000 C   0  0  0  0  0  0  0  0  0  0  0  0
   -4.9246    2.1557    0.0000 C   0  0  0  0  0  0  0  0  0  0  0  0
    3.4800   -0.8149    0.0000 C   0  0  0  0  0  0  0  0  0  0  0  0
    4.6191    0.1610    0.0000 O   0  0  0  0  0  0  0  0  0  0  0  0
    7.1729   -4.1204    0.0000 O   0  0  0  0  0  0  0  0  0  0  0  0
    7.1928   -2.1922    0.0000 O   0  0  0  0  0  0  0  0  0  0  0  0
    5.2972   -1.8378    0.0000 O   0  0  0  0  0  0  0  0  0  0  0  0
    1.8262    0.8571    0.0000 O   0  0  0  0  0  0  0  0  0  0  0  0
  1  2  1  0  0  0  0 
  2  3  1  0  0  0  0 
  4  3  1  6  0  0  0 
  4  5  1  0  0  0  0 
  5  6  1  0  0  0  0 
  6  7  1  0  0  0  0 
  7  8  1  0  0  0  0 
  8  9  1  0  0  0  0 
  4  9  1  0  0  0  0 
  7 10  1  1  0  0  0 
 10 11  2  0  0  0  0 
 10 12  1  0  0  0  0 
 12 13  1  0  0  0  0 
 13 14  1  0  0  0  0 
 14 15  1  0  0  0  0 
 15 16  1  0  0  0  0 
 16 17  1  0  0  0  0 
 17 18  1  0  0  0  0 
 13 18  1  0  0  0  0 
  6 19  1  0  0  0  0 
  3 19  1  0  0  0  0 
 19 20  2  0  0  0  0 
  1 21  1  0  0  0  0 
  1 22  2  0  0  0  0 
  1 23  2  0  0  0  0 
  6 24  1  0  0  0  0 
M  CHG  1   6   1
M  CHG  1  16   1
M  CHG  1  21  -1
M  CHG  1  24  -1
M  END
> <InChI>
InChI=1S/C12H20N4O7S/c17-11(14-8-3-5-13-6-4-8)10-2-1-9-7-16(10,19)12(18)15(9)23-24(20,21)22/h8-10,13H,1-7H2,(H,14,17)(H,20,21,22)/t9-,10+,16?/m1/s1

> <InChIKey>
IBERRMZUMPKAGE-KXTRXUQASA-N

> <SMILES>
S(ON1[C@H]2C[N+]([C@@H](CC2)C(=O)NC3CC[NH2+]CC3)(C1=O)[O-])([O-])(=O)=O

> <Synonyms>


> <PUBCHEM_CID>


> <Molecular_formula>
C12H20N4O7S

> <Major_Isotope_Mass>
364.10526998

> <ALogP>
-4.216399999999998

> <Lipinski_Violations>
0

> <Insecticide_Likeness_Violations>
0

> <Post_Em_Herbicide_Likeness_Violations>
0

> <Metabolite_ID>
BTM00003

> <Reaction>
Oxidation of nitrogen in strained ring system

> <Reaction_ID>
BTMR1116

> <Enzyme(s)>
CYP3A4

> <Biosystem>
HUMAN

> <Precursor_ID>
TEST0028_Relebactam

> <Precursor_SMILES>
S(ON1[C@H]2C[N@]([C@@H](CC2)C(=O)NC3CC[NH2+]CC3)C1=O)([O-])(=O)=O

> <Precursor_InChI>
InChI=1S/C12H20N4O6S/c17-11(14-8-3-5-13-6-4-8)10-2-1-9-7-15(10)12(18)16(9)22-23(19,20)21/h8-10,13H,1-7H2,(H,14,17)(H,19,20,21)/t9-,10+/m1/s1

> <Precursor_InChIKey>
SMOBCLHAZXOKDQ-ZJUUUORDSA-N

> <Precursor_ALogP>
-5.26839

> <Precursor_Major_Isotope_Mass>
348.1103

$$$$
