BTM00001
  CDK     08072417462D

 10  9  0  0  0  0  0  0  0  0999 V2000
    1.1618   -0.2377    0.0000 F   0  0  0  0  0  0  0  0  0  0  0  0
    0.4118    1.0613    0.0000 C   0  0  0  0  0  0  0  0  0  0  0  0
   -0.3382    2.3603    0.0000 F   0  0  0  0  0  0  0  0  0  0  0  0
   -0.8873    0.3113    0.0000 F   0  0  0  0  0  0  0  0  0  0  0  0
    1.7108    1.8113    0.0000 C   0  0  0  0  0  0  0  0  0  0  0  0
    1.7108    3.3113    0.0000 C   0  0  0  0  0  0  0  0  0  0  0  0
    3.2108    3.3113    0.0000 F   0  0  0  0  0  0  0  0  0  0  0  0
    1.7108    4.8113    0.0000 F   0  0  0  0  0  0  0  0  0  0  0  0
    0.2108    3.3113    0.0000 F   0  0  0  0  0  0  0  0  0  0  0  0
    3.0099    1.0613    0.0000 O   0  0  0  0  0  0  0  0  0  0  0  0
  1  2  1  0  0  0  0
  2  3  1  0  0  0  0
  2  4  1  0  0  0  0
  2  5  1  0  0  0  0
  5  6  1  0  0  0  0
  6  7  1  0  0  0  0
  6  8  1  0  0  0  0
  6  9  1  0  0  0  0
  5 10  2  0  0  0  0
M  END
> <InChI>
InChI=1S/C3F6O/c4-2(5,6)1(10)3(7,8)9

> <InChIKey>
VBZWSGALLODQNC-UHFFFAOYSA-N

> <SMILES>
FC(F)(F)C(C(F)(F)F)=O

> <Synonyms>


> <PUBCHEM_CID>


> <Molecular_formula>
C3F6O

> <Major_Isotope_Mass>
165.98533394

> <ALogP>
1.9324

> <Lipinski_Violations>
0

> <Insecticide_Likeness_Violations>
0

> <Post_Em_Herbicide_Likeness_Violations>
0

> <Metabolite_ID>
BTM00001

> <Reaction>
O-Dealkylation of dialkylether

> <Reaction_ID>
BTMR1129

> <Enzyme(s)>
CYP1A2
CYP2C9
CYP2C19
CYP2D6
CYP3A4

> <Biosystem>
HUMAN

> <Precursor_ID>
TEST0084_Sevoflurane

> <Precursor_SMILES>
FC(F)(F)C(OCF)C(F)(F)F

> <Precursor_InChI>
InChI=1S/C4H3F7O/c5-1-12-2(3(6,7)8)4(9,10)11/h2H,1H2

> <Precursor_InChIKey>
DFEYYRMXOJXZRJ-UHFFFAOYSA-N

> <Precursor_ALogP>
2.233

> <Precursor_Major_Isotope_Mass>
200.0072

$$$$
BTM00002
  CDK     08072417462D

  3  2  0  0  0  0  0  0  0  0999 V2000
   -1.2990    0.0000    0.0000 O   0  0  0  0  0  0  0  0  0  0  0  0
   -0.0000    0.7500    0.0000 C   0  0  0  0  0  0  0  0  0  0  0  0
    0.0000    2.2500    0.0000 F   0  0  0  0  0  0  0  0  0  0  0  0
  1  2  1  0  0  0  0
  2  3  1  0  0  0  0
M  END
> <InChI>
InChI=1S/CH3FO/c2-1-3/h3H,1H2

> <InChIKey>
RLWXXXHAQBWSPA-UHFFFAOYSA-N

> <SMILES>
OCF

> <Synonyms>


> <PUBCHEM_CID>


> <Molecular_formula>
CH3FO

> <Major_Isotope_Mass>
50.016792936

> <ALogP>
-0.21899999999999997

> <Lipinski_Violations>
0

> <Insecticide_Likeness_Violations>
0

> <Post_Em_Herbicide_Likeness_Violations>
0

> <Metabolite_ID>
BTM00002

> <Reaction>
O-Dealkylation of dialkylether

> <Reaction_ID>
BTMR1129

> <Enzyme(s)>
CYP1A2
CYP2C9
CYP2C19
CYP2D6
CYP3A4

> <Biosystem>
HUMAN

> <Precursor_ID>
TEST0084_Sevoflurane

> <Precursor_SMILES>
FC(F)(F)C(OCF)C(F)(F)F

> <Precursor_InChI>
InChI=1S/C4H3F7O/c5-1-12-2(3(6,7)8)4(9,10)11/h2H,1H2

> <Precursor_InChIKey>
DFEYYRMXOJXZRJ-UHFFFAOYSA-N

> <Precursor_ALogP>
2.233

> <Precursor_Major_Isotope_Mass>
200.0072

$$$$
BTM00003
  CDK     08072417462D

 10  9  0  0  0  0  0  0  0  0999 V2000
    1.1618   -0.2377    0.0000 F   0  0  0  0  0  0  0  0  0  0  0  0
    0.4118    1.0613    0.0000 C   0  0  0  0  0  0  0  0  0  0  0  0
   -0.3382    2.3603    0.0000 F   0  0  0  0  0  0  0  0  0  0  0  0
   -0.8873    0.3113    0.0000 F   0  0  0  0  0  0  0  0  0  0  0  0
    1.7108    1.8113    0.0000 C   0  0  0  0  0  0  0  0  0  0  0  0
    3.0099    1.0613    0.0000 O   0  0  0  0  0  0  0  0  0  0  0  0
    1.7108    3.3113    0.0000 C   0  0  0  0  0  0  0  0  0  0  0  0
    3.2108    3.3113    0.0000 F   0  0  0  0  0  0  0  0  0  0  0  0
    1.7108    4.8113    0.0000 F   0  0  0  0  0  0  0  0  0  0  0  0
    0.2108    3.3113    0.0000 F   0  0  0  0  0  0  0  0  0  0  0  0
  1  2  1  0  0  0  0
  2  3  1  0  0  0  0
  2  4  1  0  0  0  0
  2  5  1  0  0  0  0
  5  6  1  0  0  0  0
  5  7  1  0  0  0  0
  7  8  1  0  0  0  0
  7  9  1  0  0  0  0
  7 10  1  0  0  0  0
M  END
> <InChI>
InChI=1S/C3H2F6O/c4-2(5,6)1(10)3(7,8)9/h1,10H

> <InChIKey>
BYEAHWXPCBROCE-UHFFFAOYSA-N

> <SMILES>
FC(F)(F)C(O)C(F)(F)F

> <Synonyms>


> <PUBCHEM_CID>


> <Molecular_formula>
C3H2F6O

> <Major_Isotope_Mass>
168.000984004

> <ALogP>
1.6855000000000002

> <Lipinski_Violations>
0

> <Insecticide_Likeness_Violations>
0

> <Post_Em_Herbicide_Likeness_Violations>
0

> <Metabolite_ID>
BTM00003

> <Reaction>
O-Dealkylation of dialkylether

> <Reaction_ID>
BTMR1129

> <Enzyme(s)>
CYP1A2
CYP2C9
CYP2C19
CYP2D6
CYP3A4

> <Biosystem>
HUMAN

> <Precursor_ID>
TEST0084_Sevoflurane

> <Precursor_SMILES>
FC(F)(F)C(OCF)C(F)(F)F

> <Precursor_InChI>
InChI=1S/C4H3F7O/c5-1-12-2(3(6,7)8)4(9,10)11/h2H,1H2

> <Precursor_InChIKey>
DFEYYRMXOJXZRJ-UHFFFAOYSA-N

> <Precursor_ALogP>
2.233

> <Precursor_Major_Isotope_Mass>
200.0072

$$$$
BTM00004
  CDK     08072417462D

 13 12  0  0  0  0  0  0  0  0999 V2000
    0.9510   -0.5490    0.0000 F   0  0  0  0  0  0  0  0  0  0  0  0
    0.2010    0.7500    0.0000 C   0  0  0  0  0  0  0  0  0  0  0  0
   -0.5490    2.0490    0.0000 F   0  0  0  0  0  0  0  0  0  0  0  0
   -1.0981   -0.0000    0.0000 F   0  0  0  0  0  0  0  0  0  0  0  0
    1.5000    1.5000    0.0000 C   0  0  0  0  0  0  0  0  0  0  0  0
    1.5000    3.0000    0.0000 O   0  0  0  0  0  0  0  0  0  0  0  0
    2.7990    3.7500    0.0000 C   0  0  0  0  0  0  0  0  0  0  0  0
    4.0981    3.0000    0.0000 F   0  0  0  0  0  0  0  0  0  0  0  0
    2.7990    0.7500    0.0000 C   0  0  0  0  0  0  0  0  0  0  0  0
    2.0490   -0.5490    0.0000 F   0  0  0  0  0  0  0  0  0  0  0  0
    4.0981   -0.0000    0.0000 F   0  0  0  0  0  0  0  0  0  0  0  0
    3.5490    2.0490    0.0000 F   0  0  0  0  0  0  0  0  0  0  0  0
    2.7990    5.2500    0.0000 O   0  0  0  0  0  0  0  0  0  0  0  0
  1  2  1  0  0  0  0
  2  3  1  0  0  0  0
  2  4  1  0  0  0  0
  2  5  1  0  0  0  0
  5  6  1  0  0  0  0
  6  7  1  0  0  0  0
  7  8  1  0  0  0  0
  5  9  1  0  0  0  0
  9 10  1  0  0  0  0
  9 11  1  0  0  0  0
  9 12  1  0  0  0  0
 13  7  1  0  0  0  0
M  END
> <InChI>
InChI=1S/C4H3F7O2/c5-2(12)13-1(3(6,7)8)4(9,10)11/h1-2,12H

> <InChIKey>
VJHVQOLWZJPVMX-UHFFFAOYSA-N

> <SMILES>
FC(F)(F)C(OC(F)O)C(F)(F)F

> <Synonyms>


> <PUBCHEM_CID>


> <Molecular_formula>
C4H3F7O2

> <Major_Isotope_Mass>
216.002126876

> <ALogP>
2.3527

> <Lipinski_Violations>
0

> <Insecticide_Likeness_Violations>
0

> <Post_Em_Herbicide_Likeness_Violations>
0

> <Metabolite_ID>
BTM00004

> <Reaction>
Hydroxylation of carbon adjacent to halogen

> <Reaction_ID>
BTMR1079

> <Enzyme(s)>
CYP2E1

> <Biosystem>
HUMAN

> <Precursor_ID>
TEST0084_Sevoflurane

> <Precursor_SMILES>
FC(F)(F)C(OCF)C(F)(F)F

> <Precursor_InChI>
InChI=1S/C4H3F7O/c5-1-12-2(3(6,7)8)4(9,10)11/h2H,1H2

> <Precursor_InChIKey>
DFEYYRMXOJXZRJ-UHFFFAOYSA-N

> <Precursor_ALogP>
2.233

> <Precursor_Major_Isotope_Mass>
200.0072

$$$$
