BTM00001
  CDK     08072417482D

  3  2  0  0  0  0  0  0  0  0999 V2000
   -1.2990    0.0000    0.0000 O   0  0  0  0  0  0  0  0  0  0  0  0
   -0.0000    0.7500    0.0000 C   0  0  0  0  0  0  0  0  0  0  0  0
    0.0000    2.2500    0.0000 C   0  0  0  0  0  0  0  0  0  0  0  0
  1  2  1  0  0  0  0
  2  3  1  0  0  0  0
M  END
> <InChI>
InChI=1S/C2H6O/c1-2-3/h3H,2H2,1H3

> <InChIKey>
LFQSCWFLJHTTHZ-UHFFFAOYSA-N

> <SMILES>
OCC

> <Synonyms>


> <PUBCHEM_CID>


> <Molecular_formula>
C2H6O

> <Major_Isotope_Mass>
46.041864812

> <ALogP>
-0.009199999999999875

> <Lipinski_Violations>
0

> <Insecticide_Likeness_Violations>
0

> <Post_Em_Herbicide_Likeness_Violations>
0

> <Metabolite_ID>
BTM00001

> <Reaction>
O-Dealkylation of dialkylether

> <Reaction_ID>
BTMR1129

> <Enzyme(s)>
CYP1A2
CYP2C9
CYP2C19
CYP2D6
CYP3A4

> <Biosystem>
HUMAN

> <Precursor_ID>
TEST0101_Diethyl_Ether

> <Precursor_SMILES>
O(CC)CC

> <Precursor_InChI>
InChI=1S/C4H10O/c1-3-5-4-2/h3-4H2,1-2H3

> <Precursor_InChIKey>
RTZKZFJDLAIYFH-UHFFFAOYSA-N

> <Precursor_ALogP>
0.748100

> <Precursor_Major_Isotope_Mass>
74.07316

$$$$
BTM00002
  CDK     08072417482D

  3  2  0  0  0  0  0  0  0  0999 V2000
   -0.0000    0.7500    0.0000 C   0  0  0  0  0  0  0  0  0  0  0  0
   -1.2990    0.0000    0.0000 C   0  0  0  0  0  0  0  0  0  0  0  0
    0.0000    2.2500    0.0000 O   0  0  0  0  0  0  0  0  0  0  0  0
  1  2  1  0  0  0  0
  1  3  2  0  0  0  0
M  END
> <InChI>
InChI=1S/C2H4O/c1-2-3/h2H,1H3

> <InChIKey>
IKHGUXGNUITLKF-UHFFFAOYSA-N

> <SMILES>
C(C)=O

> <Synonyms>


> <PUBCHEM_CID>


> <Molecular_formula>
C2H4O

> <Major_Isotope_Mass>
44.026214748

> <ALogP>
-0.1825

> <Lipinski_Violations>
0

> <Insecticide_Likeness_Violations>
0

> <Post_Em_Herbicide_Likeness_Violations>
0

> <Metabolite_ID>
BTM00002

> <Reaction>
O-Dealkylation of dialkylether

> <Reaction_ID>
BTMR1129

> <Enzyme(s)>
CYP1A2
CYP2C9
CYP2C19
CYP2D6
CYP3A4

> <Biosystem>
HUMAN

> <Precursor_ID>
TEST0101_Diethyl_Ether

> <Precursor_SMILES>
O(CC)CC

> <Precursor_InChI>
InChI=1S/C4H10O/c1-3-5-4-2/h3-4H2,1-2H3

> <Precursor_InChIKey>
RTZKZFJDLAIYFH-UHFFFAOYSA-N

> <Precursor_ALogP>
0.748100

> <Precursor_Major_Isotope_Mass>
74.07316

$$$$
BTM00003
  CDK     08072417482D

  6  5  0  0  0  0  0  0  0  0999 V2000
   -1.9486    3.3750    0.0000 O   0  0  0  0  0  0  0  0  0  0  0  0
   -3.2476    2.6250    0.0000 C   0  0  0  0  0  0  0  0  0  0  0  0
   -4.5466    3.3750    0.0000 C   0  0  0  0  0  0  0  0  0  0  0  0
   -0.6495    2.6250    0.0000 C   0  0  0  0  0  0  0  0  0  0  0  0
    0.6495    3.3750    0.0000 C   0  0  0  0  0  0  0  0  0  0  0  0
    1.9486    2.6250    0.0000 O   0  0  0  0  0  0  0  0  0  0  0  0
  1  2  1  0  0  0  0
  2  3  1  0  0  0  0
  1  4  1  0  0  0  0
  4  5  1  0  0  0  0
  6  5  1  0  0  0  0
M  END
> <InChI>
InChI=1S/C4H10O2/c1-2-6-4-3-5/h5H,2-4H2,1H3

> <InChIKey>
ZNQVEEAIQZEUHB-UHFFFAOYSA-N

> <SMILES>
O(CC)CCO

> <Synonyms>


> <PUBCHEM_CID>


> <Molecular_formula>
C4H10O2

> <Major_Isotope_Mass>
90.06807956

> <ALogP>
-0.14009999999999997

> <Lipinski_Violations>
0

> <Insecticide_Likeness_Violations>
0

> <Post_Em_Herbicide_Likeness_Violations>
0

> <Metabolite_ID>
BTM00003

> <Reaction>
Hydroxylation of terminal methyl

> <Reaction_ID>
BTMR1061

> <Enzyme(s)>
CYP1A2
CYP2A6
CYP2B6
CYP2C8
CYP2C9
CYP2C19
CYP2D6
CYP2E1
CYP3A4

> <Biosystem>
HUMAN

> <Precursor_ID>
TEST0101_Diethyl_Ether

> <Precursor_SMILES>
O(CC)CC

> <Precursor_InChI>
InChI=1S/C4H10O/c1-3-5-4-2/h3-4H2,1-2H3

> <Precursor_InChIKey>
RTZKZFJDLAIYFH-UHFFFAOYSA-N

> <Precursor_ALogP>
0.748100

> <Precursor_Major_Isotope_Mass>
74.07316

$$$$
