BTM00001
  CDK     08072417402D

 26 28  0  0  1  0  0  0  0  0999 V2000
    0.7000    1.5000    0.0000 S   0  0  0  0  0  0  0  0  0  0  0  0
   -0.6000    0.7500    0.0000 C   0  0  1  0  0  0  0  0  0  0  0  0
   -0.6000   -0.7500    0.0000 N   0  0  0  0  0  0  0  0  0  0  0  0
   -2.1000   -0.7500    0.0000 C   0  0  0  0  0  0  0  0  0  0  0  0
   -3.1607   -1.8107    0.0000 O   0  0  0  0  0  0  0  0  0  0  0  0
   -2.1000    0.7500    0.0000 C   0  0  1  0  0  0  0  0  0  0  0  0
   -3.1607    1.8107    0.0000 N   0  0  0  0  0  0  0  0  0  0  0  0
   -4.6095    1.4224    0.0000 C   0  0  0  0  0  0  0  0  0  0  0  0
   -4.9978   -0.0265    0.0000 O   0  0  0  0  0  0  0  0  0  0  0  0
   -5.6702    2.4831    0.0000 C   0  0  0  0  0  0  0  0  0  0  0  0
   -7.1191    2.0949    0.0000 N   0  0  0  0  0  0  0  0  0  0  0  0
   -7.5073    0.6460    0.0000 O   0  0  0  0  0  0  0  0  0  0  0  0
   -8.9562    0.2577    0.0000 C   0  0  0  0  0  0  0  0  0  0  0  0
   -5.2820    3.9320    0.0000 C   0  0  0  0  0  0  0  0  0  0  0  0
   -6.2254    5.0981    0.0000 N   0  0  0  0  0  0  0  0  0  0  0  0
   -5.4108    6.3489    0.0000 C   0  0  0  0  0  0  0  0  0  0  0  0
   -3.9579    5.9680    0.0000 S   0  0  0  0  0  0  0  0  0  0  0  0
   -3.8887    4.4675    0.0000 C   0  0  0  0  0  0  0  0  0  0  0  0
   -5.9513    7.7481    0.0000 N   0  0  0  0  0  0  0  0  0  0  0  0
    0.7000   -1.5000    0.0000 C   0  0  0  0  0  0  0  0  0  0  0  0
    2.0000   -0.7500    0.0000 C   0  0  0  0  0  0  0  0  0  0  0  0
    2.0000    0.7500    0.0000 C   0  0  0  0  0  0  0  0  0  0  0  0
    0.7000   -3.0000    0.0000 C   0  0  0  0  0  0  0  0  0  0  0  0
    1.9990   -3.7500    0.0000 O   0  0  0  0  0  0  0  0  0  0  0  0
   -0.5990   -3.7500    0.0000 O   0  0  0  0  0  0  0  0  0  0  0  0
    0.7000    3.0000    0.0000 O   0  0  0  0  0  0  0  0  0  0  0  0
  1  2  1  0  0  0  0
  2  3  1  1  0  0  0
  3  4  1  0  0  0  0
  4  5  2  0  0  0  0
  4  6  1  0  0  0  0
  2  6  1  0  0  0  0
  6  7  1  1  0  0  0
  7  8  1  0  0  0  0
  8  9  2  0  0  0  0
  8 10  1  0  0  0  0
 10 11  2  0  0  0  0
 11 12  1  0  0  0  0
 12 13  1  0  0  0  0
 10 14  1  0  0  0  0
 14 15  1  0  0  0  0
 15 16  2  0  0  0  0
 16 17  1  0  0  0  0
 17 18  1  0  0  0  0
 14 18  2  0  0  0  0
 16 19  1  0  0  0  0
  3 20  1  0  0  0  0
 20 21  2  0  0  0  0
 21 22  1  0  0  0  0
  1 22  1  0  0  0  0
 20 23  1  0  0  0  0
 23 24  1  0  0  0  0
 23 25  2  0  0  0  0
  1 26  2  0  0  0  0
M  END
> <InChI>
InChI=1S/C13H13N5O6S2/c1-24-17-7(5-4-25-13(14)15-5)9(19)16-8-10(20)18-6(12(21)22)2-3-26(23)11(8)18/h2,4,8,11H,3H2,1H3,(H2,14,15)(H,16,19)(H,21,22)/b17-7-/t8-,11-,26?/m1/s1

> <InChIKey>
YWYOPDGGBVGNRH-UPQPXXOWSA-N

> <SMILES>
S1([C@H]2N(C(=O)[C@H]2NC(=O)/C(=N\OC)/C=3N=C(SC3)N)C(=CC1)C(O)=O)=O

> <Synonyms>


> <PUBCHEM_CID>


> <Molecular_formula>
C13H13N5O6S2

> <Major_Isotope_Mass>
399.030725136

> <ALogP>
-1.6743000000000008

> <Lipinski_Violations>
0

> <Insecticide_Likeness_Violations>
1

> <Post_Em_Herbicide_Likeness_Violations>
1

> <Metabolite_ID>
BTM00001

> <Reaction>
S-Oxidation of dialkylthioether to sulfoxide

> <Reaction_ID>
BTMR0057

> <Enzyme(s)>
CYP1A2
CYP2A6
CYP2B6
CYP2C9
CYP2C19
CYP2D6
CYP3A4

> <Biosystem>
HUMAN

> <Precursor_ID>
TEST0022_Ceftizoxime

> <Precursor_SMILES>
S1[C@H]2N(C(=O)[C@H]2NC(=O)/C(=N\OC)/C=3N=C(SC3)N)C(=CC1)C(O)=O

> <Precursor_InChI>
InChI=1S/C13H13N5O5S2/c1-23-17-7(5-4-25-13(14)15-5)9(19)16-8-10(20)18-6(12(21)22)2-3-24-11(8)18/h2,4,8,11H,3H2,1H3,(H2,14,15)(H,16,19)(H,21,22)/b17-7-/t8-,11-/m1/s1

> <Precursor_InChIKey>
NNULBSISHYWZJU-LLKWHZGFSA-N

> <Precursor_ALogP>
-0.56250

> <Precursor_Major_Isotope_Mass>
383.0358

$$$$
BTM00002
  CDK     08072417402D

 26 28  0  0  1  0  0  0  0  0999 V2000
    0.7000    1.5000    0.0000 S   0  0  0  0  0  0  0  0  0  0  0  0
   -0.6000    0.7500    0.0000 C   0  0  1  0  0  0  0  0  0  0  0  0
   -0.6000   -0.7500    0.0000 N   0  0  0  0  0  0  0  0  0  0  0  0
   -2.1000   -0.7500    0.0000 C   0  0  0  0  0  0  0  0  0  0  0  0
   -3.1607   -1.8107    0.0000 O   0  0  0  0  0  0  0  0  0  0  0  0
   -2.1000    0.7500    0.0000 C   0  0  1  0  0  0  0  0  0  0  0  0
   -3.1607    1.8107    0.0000 N   0  0  0  0  0  0  0  0  0  0  0  0
   -4.6095    1.4224    0.0000 C   0  0  0  0  0  0  0  0  0  0  0  0
   -4.9978   -0.0265    0.0000 O   0  0  0  0  0  0  0  0  0  0  0  0
   -5.6702    2.4831    0.0000 C   0  0  0  0  0  0  0  0  0  0  0  0
   -7.1191    2.0949    0.0000 N   0  0  0  0  0  0  0  0  0  0  0  0
   -7.5073    0.6460    0.0000 O   0  0  0  0  0  0  0  0  0  0  0  0
   -8.9562    0.2577    0.0000 C   0  0  0  0  0  0  0  0  0  0  0  0
   -5.2820    3.9320    0.0000 C   0  0  0  0  0  0  0  0  0  0  0  0
   -6.2254    5.0981    0.0000 N   0  0  0  0  0  0  0  0  0  0  0  0
   -5.4108    6.3489    0.0000 C   0  0  0  0  0  0  0  0  0  0  0  0
   -3.9579    5.9680    0.0000 S   0  0  0  0  0  0  0  0  0  0  0  0
   -3.8887    4.4675    0.0000 C   0  0  0  0  0  0  0  0  0  0  0  0
   -5.9513    7.7481    0.0000 N   0  0  0  0  0  0  0  0  0  0  0  0
    0.7000   -1.5000    0.0000 C   0  0  0  0  0  0  0  0  0  0  0  0
    2.0000   -0.7500    0.0000 C   0  0  0  0  0  0  0  0  0  0  0  0
    2.0000    0.7500    0.0000 C   0  0  0  0  0  0  0  0  0  0  0  0
    0.7000   -3.0000    0.0000 C   0  0  0  0  0  0  0  0  0  0  0  0
    1.9990   -3.7500    0.0000 O   0  0  0  0  0  0  0  0  0  0  0  0
   -0.5990   -3.7500    0.0000 O   0  0  0  0  0  0  0  0  0  0  0  0
    3.2989    1.5002    0.0000 O   0  0  0  0  0  0  0  0  0  0  0  0
  1  2  1  0  0  0  0
  2  3  1  1  0  0  0
  3  4  1  0  0  0  0
  4  5  2  0  0  0  0
  4  6  1  0  0  0  0
  2  6  1  0  0  0  0
  6  7  1  1  0  0  0
  7  8  1  0  0  0  0
  8  9  2  0  0  0  0
  8 10  1  0  0  0  0
 10 11  2  0  0  0  0
 11 12  1  0  0  0  0
 12 13  1  0  0  0  0
 10 14  1  0  0  0  0
 14 15  1  0  0  0  0
 15 16  2  0  0  0  0
 16 17  1  0  0  0  0
 17 18  1  0  0  0  0
 14 18  2  0  0  0  0
 16 19  1  0  0  0  0
  3 20  1  0  0  0  0
 20 21  2  0  0  0  0
 21 22  1  0  0  0  0
  1 22  1  0  0  0  0
 20 23  1  0  0  0  0
 23 24  1  0  0  0  0
 23 25  2  0  0  0  0
 26 22  1  0  0  0  0
M  END
> <InChI>
InChI=1S/C13H13N5O6S2/c1-24-17-7(4-3-25-13(14)15-4)9(20)16-8-10(21)18-5(12(22)23)2-6(19)26-11(8)18/h2-3,6,8,11,19H,1H3,(H2,14,15)(H,16,20)(H,22,23)/b17-7-/t6?,8-,11-/m1/s1

> <InChIKey>
QFADGPNSQGLTCT-UNNJBKMASA-N

> <SMILES>
S1[C@H]2N(C(=O)[C@H]2NC(=O)/C(=N\OC)/C=3N=C(SC3)N)C(=CC1O)C(O)=O

> <Synonyms>


> <PUBCHEM_CID>


> <Molecular_formula>
C13H13N5O6S2

> <Major_Isotope_Mass>
399.030725136

> <ALogP>
-0.9022000000000001

> <Lipinski_Violations>
0

> <Insecticide_Likeness_Violations>
1

> <Post_Em_Herbicide_Likeness_Violations>
1

> <Metabolite_ID>
BTM00002

> <Reaction>
Hydroxylation of heteroalicyclic secondary carbon

> <Reaction_ID>
BTMR1070

> <Enzyme(s)>
CYP1A2
CYP2A6
CYP2C9
CYP2D6
CYP3A4

> <Biosystem>
HUMAN

> <Precursor_ID>
TEST0022_Ceftizoxime

> <Precursor_SMILES>
S1[C@H]2N(C(=O)[C@H]2NC(=O)/C(=N\OC)/C=3N=C(SC3)N)C(=CC1)C(O)=O

> <Precursor_InChI>
InChI=1S/C13H13N5O5S2/c1-23-17-7(5-4-25-13(14)15-5)9(19)16-8-10(20)18-6(12(21)22)2-3-24-11(8)18/h2,4,8,11H,3H2,1H3,(H2,14,15)(H,16,19)(H,21,22)/b17-7-/t8-,11-/m1/s1

> <Precursor_InChIKey>
NNULBSISHYWZJU-LLKWHZGFSA-N

> <Precursor_ALogP>
-0.56250

> <Precursor_Major_Isotope_Mass>
383.0358

$$$$
BTM00003
  CDK     08072417402D

 26 28  0  0  1  0  0  0  0  0999 V2000
    0.7000    1.5000    0.0000 S   0  0  0  0  0  0  0  0  0  0  0  0
   -0.6000    0.7500    0.0000 C   0  0  1  0  0  0  0  0  0  0  0  0
   -0.6000   -0.7500    0.0000 N   0  0  0  0  0  0  0  0  0  0  0  0
   -2.1000   -0.7500    0.0000 C   0  0  0  0  0  0  0  0  0  0  0  0
   -3.1607   -1.8107    0.0000 O   0  0  0  0  0  0  0  0  0  0  0  0
   -2.1000    0.7500    0.0000 C   0  0  1  0  0  0  0  0  0  0  0  0
   -3.1607    1.8107    0.0000 N   0  0  0  0  0  0  0  0  0  0  0  0
   -4.6095    1.4224    0.0000 C   0  0  0  0  0  0  0  0  0  0  0  0
   -4.9978   -0.0265    0.0000 O   0  0  0  0  0  0  0  0  0  0  0  0
   -5.6702    2.4831    0.0000 C   0  0  0  0  0  0  0  0  0  0  0  0
   -7.1191    2.0949    0.0000 N   0  0  0  0  0  0  0  0  0  0  0  0
   -7.5073    0.6460    0.0000 O   0  0  0  0  0  0  0  0  0  0  0  0
   -8.9562    0.2577    0.0000 C   0  0  0  0  0  0  0  0  0  0  0  0
   -5.2820    3.9320    0.0000 C   0  0  0  0  0  0  0  0  0  0  0  0
   -6.2254    5.0981    0.0000 N   0  0  0  0  0  0  0  0  0  0  0  0
   -5.4108    6.3489    0.0000 C   0  0  0  0  0  0  0  0  0  0  0  0
   -3.9579    5.9680    0.0000 S   0  0  0  0  0  0  0  0  0  0  0  0
   -3.8887    4.4675    0.0000 C   0  0  0  0  0  0  0  0  0  0  0  0
   -5.9513    7.7481    0.0000 N   0  0  0  0  0  0  0  0  0  0  0  0
    0.7000   -1.5000    0.0000 C   0  0  0  0  0  0  0  0  0  0  0  0
    2.0000   -0.7500    0.0000 C   0  0  0  0  0  0  0  0  0  0  0  0
    2.0000    0.7500    0.0000 C   0  0  0  0  0  0  0  0  0  0  0  0
    0.7000   -3.0000    0.0000 C   0  0  0  0  0  0  0  0  0  0  0  0
    1.9990   -3.7500    0.0000 O   0  0  0  0  0  0  0  0  0  0  0  0
   -0.5990   -3.7500    0.0000 O   0  0  0  0  0  0  0  0  0  0  0  0
   -7.4333    7.9798    0.0000 O   0  0  0  0  0  0  0  0  0  0  0  0
  1  2  1  0  0  0  0
  2  3  1  1  0  0  0
  3  4  1  0  0  0  0
  4  5  2  0  0  0  0
  4  6  1  0  0  0  0
  2  6  1  0  0  0  0
  6  7  1  1  0  0  0
  7  8  1  0  0  0  0
  8  9  2  0  0  0  0
  8 10  1  0  0  0  0
 10 11  2  0  0  0  0
 11 12  1  0  0  0  0
 12 13  1  0  0  0  0
 10 14  1  0  0  0  0
 14 15  1  0  0  0  0
 15 16  2  0  0  0  0
 16 17  1  0  0  0  0
 17 18  1  0  0  0  0
 14 18  2  0  0  0  0
 16 19  1  0  0  0  0
  3 20  1  0  0  0  0
 20 21  2  0  0  0  0
 21 22  1  0  0  0  0
  1 22  1  0  0  0  0
 20 23  1  0  0  0  0
 23 24  1  0  0  0  0
 23 25  2  0  0  0  0
 26 19  1  0  0  0  0
M  END
> <InChI>
InChI=1S/C13H13N5O6S2/c1-24-17-7(5-4-26-13(14-5)16-23)9(19)15-8-10(20)18-6(12(21)22)2-3-25-11(8)18/h2,4,8,11,23H,3H2,1H3,(H,14,16)(H,15,19)(H,21,22)/b17-7-/t8-,11-/m1/s1

> <InChIKey>
ZGWAYBLPLIBSDF-LLKWHZGFSA-N

> <SMILES>
S1[C@H]2N(C(=O)[C@H]2NC(=O)/C(=N\OC)/C=3N=C(SC3)NO)C(=CC1)C(O)=O

> <Synonyms>


> <PUBCHEM_CID>


> <Molecular_formula>
C13H13N5O6S2

> <Major_Isotope_Mass>
399.030725136

> <ALogP>
-0.5698000000000008

> <Lipinski_Violations>
0

> <Insecticide_Likeness_Violations>
1

> <Post_Em_Herbicide_Likeness_Violations>
1

> <Metabolite_ID>
BTM00003

> <Reaction>
N-Hydroxylation of primary arylamine

> <Reaction_ID>
BTMR0042

> <Enzyme(s)>
CYP1A2
CYP2A6
CYP2B6
CYP2C9
CYP2C19
CYP2E1
CYP3A4

> <Biosystem>
HUMAN

> <Precursor_ID>
TEST0022_Ceftizoxime

> <Precursor_SMILES>
S1[C@H]2N(C(=O)[C@H]2NC(=O)/C(=N\OC)/C=3N=C(SC3)N)C(=CC1)C(O)=O

> <Precursor_InChI>
InChI=1S/C13H13N5O5S2/c1-23-17-7(5-4-25-13(14)15-5)9(19)16-8-10(20)18-6(12(21)22)2-3-24-11(8)18/h2,4,8,11H,3H2,1H3,(H2,14,15)(H,16,19)(H,21,22)/b17-7-/t8-,11-/m1/s1

> <Precursor_InChIKey>
NNULBSISHYWZJU-LLKWHZGFSA-N

> <Precursor_ALogP>
-0.56250

> <Precursor_Major_Isotope_Mass>
383.0358

$$$$
BTM00004
  CDK     08072417402D

 26 28  0  0  1  0  0  0  0  0999 V2000
    0.7000    1.5000    0.0000 S   0  0  0  0  0  0  0  0  0  0  0  0
   -0.6000    0.7500    0.0000 C   0  0  1  0  0  0  0  0  0  0  0  0
   -0.6000   -0.7500    0.0000 N   0  3  0  0  0  0  0  0  0  0  0  0
   -2.1000   -0.7500    0.0000 C   0  0  0  0  0  0  0  0  0  0  0  0
   -3.1607   -1.8107    0.0000 O   0  0  0  0  0  0  0  0  0  0  0  0
   -2.1000    0.7500    0.0000 C   0  0  1  0  0  0  0  0  0  0  0  0
   -3.1607    1.8107    0.0000 N   0  0  0  0  0  0  0  0  0  0  0  0
   -4.6095    1.4224    0.0000 C   0  0  0  0  0  0  0  0  0  0  0  0
   -4.9978   -0.0265    0.0000 O   0  0  0  0  0  0  0  0  0  0  0  0
   -5.6702    2.4831    0.0000 C   0  0  0  0  0  0  0  0  0  0  0  0
   -7.1191    2.0949    0.0000 N   0  0  0  0  0  0  0  0  0  0  0  0
   -7.5073    0.6460    0.0000 O   0  0  0  0  0  0  0  0  0  0  0  0
   -8.9562    0.2577    0.0000 C   0  0  0  0  0  0  0  0  0  0  0  0
   -5.2820    3.9320    0.0000 C   0  0  0  0  0  0  0  0  0  0  0  0
   -6.2254    5.0981    0.0000 N   0  0  0  0  0  0  0  0  0  0  0  0
   -5.4108    6.3489    0.0000 C   0  0  0  0  0  0  0  0  0  0  0  0
   -3.9579    5.9680    0.0000 S   0  0  0  0  0  0  0  0  0  0  0  0
   -3.8887    4.4675    0.0000 C   0  0  0  0  0  0  0  0  0  0  0  0
   -5.9513    7.7481    0.0000 N   0  0  0  0  0  0  0  0  0  0  0  0
    0.7000   -1.5000    0.0000 C   0  0  0  0  0  0  0  0  0  0  0  0
    2.0000   -0.7500    0.0000 C   0  0  0  0  0  0  0  0  0  0  0  0
    2.0000    0.7500    0.0000 C   0  0  0  0  0  0  0  0  0  0  0  0
    0.7000   -3.0000    0.0000 C   0  0  0  0  0  0  0  0  0  0  0  0
    1.9990   -3.7500    0.0000 O   0  0  0  0  0  0  0  0  0  0  0  0
   -0.5990   -3.7500    0.0000 O   0  0  0  0  0  0  0  0  0  0  0  0
   -0.9880   -2.1990    0.0000 O   0  5  0  0  0  0  0  0  0  0  0  0
  1  2  1  0  0  0  0
  2  3  1  1  0  0  0
  3  4  1  0  0  0  0
  4  5  2  0  0  0  0
  4  6  1  0  0  0  0
  2  6  1  0  0  0  0
  6  7  1  1  0  0  0
  7  8  1  0  0  0  0
  8  9  2  0  0  0  0
  8 10  1  0  0  0  0
 10 11  2  0  0  0  0
 11 12  1  0  0  0  0
 12 13  1  0  0  0  0
 10 14  1  0  0  0  0
 14 15  1  0  0  0  0
 15 16  2  0  0  0  0
 16 17  1  0  0  0  0
 17 18  1  0  0  0  0
 14 18  2  0  0  0  0
 16 19  1  0  0  0  0
  3 20  1  0  0  0  0
 20 21  2  0  0  0  0
 21 22  1  0  0  0  0
  1 22  1  0  0  0  0
 20 23  1  0  0  0  0
 23 24  1  0  0  0  0
 23 25  2  0  0  0  0
  3 26  1  0  0  0  0
M  CHG  1   3   1
M  CHG  1  26  -1
M  END
> <InChI>
InChI=1S/C13H13N5O6S2/c1-24-17-7(5-4-26-13(14)15-5)9(19)16-8-10(20)18(23)6(12(21)22)2-3-25-11(8)18/h2,4,8,11H,3H2,1H3,(H2,14,15)(H,16,19)(H,21,22)/b17-7-/t8-,11-,18?/m1/s1

> <InChIKey>
AUSUXUPWDHQSSR-AFKUCHTMSA-N

> <SMILES>
S1[C@H]2[N+](C(=O)[C@H]2NC(=O)/C(=N\OC)/C=3N=C(SC3)N)(C(=CC1)C(O)=O)[O-]

> <Synonyms>


> <PUBCHEM_CID>


> <Molecular_formula>
C13H13N5O6S2

> <Major_Isotope_Mass>
399.03072513600006

> <ALogP>
-0.4431000000000007

> <Lipinski_Violations>
0

> <Insecticide_Likeness_Violations>
1

> <Post_Em_Herbicide_Likeness_Violations>
1

> <Metabolite_ID>
BTM00004

> <Reaction>
Oxidation of nitrogen in strained ring system

> <Reaction_ID>
BTMR1116

> <Enzyme(s)>
CYP2C9
CYP2E1
CYP3A4

> <Biosystem>
HUMAN

> <Precursor_ID>
TEST0022_Ceftizoxime

> <Precursor_SMILES>
S1[C@H]2N(C(=O)[C@H]2NC(=O)/C(=N\OC)/C=3N=C(SC3)N)C(=CC1)C(O)=O

> <Precursor_InChI>
InChI=1S/C13H13N5O5S2/c1-23-17-7(5-4-25-13(14)15-5)9(19)16-8-10(20)18-6(12(21)22)2-3-24-11(8)18/h2,4,8,11H,3H2,1H3,(H2,14,15)(H,16,19)(H,21,22)/b17-7-/t8-,11-/m1/s1

> <Precursor_InChIKey>
NNULBSISHYWZJU-LLKWHZGFSA-N

> <Precursor_ALogP>
-0.56250

> <Precursor_Major_Isotope_Mass>
383.0358

$$$$
