BTM00001
  CDK     08072417422D

 31 33  0  0  1  0  0  0  0  0999 V2000
    7.4714    3.9872    0.0000 S   0  0  0  0  0  0  0  0  0  0  0  0
    6.1723    3.2372    0.0000 C   0  0  2  0  0  0  0  0  0  0  0  0
    6.1723    1.7372    0.0000 C   0  0  2  0  0  0  0  0  0  0  0  0
    4.8733    0.9872    0.0000 O   0  0  0  0  0  0  0  0  0  0  0  0
    7.4714    0.9872    0.0000 C   0  0  1  0  0  0  0  0  0  0  0  0
    7.4714   -0.5128    0.0000 O   0  0  0  0  0  0  0  0  0  0  0  0
    8.7704    1.7372    0.0000 C   0  0  2  0  0  0  0  0  0  0  0  0
   10.0694    0.9872    0.0000 O   0  0  0  0  0  0  0  0  0  0  0  0
    8.7704    3.2372    0.0000 C   0  0  1  0  0  0  0  0  0  0  0  0
   10.0694    3.9872    0.0000 C   0  0  0  0  0  0  0  0  0  0  0  0
   10.0694    5.4872    0.0000 O   0  0  0  0  0  0  0  0  0  0  0  0
    4.8733    3.9872    0.0000 C   0  0  0  0  0  0  0  0  0  0  0  0
    3.5734    3.2370    0.0000 C   0  0  0  0  0  0  0  0  0  0  0  0
    2.2733    3.9868    0.0000 C   0  0  0  0  0  0  0  0  0  0  0  0
    2.2730    5.4868    0.0000 C   0  0  0  0  0  0  0  0  0  0  0  0
    3.5729    6.2370    0.0000 C   0  0  0  0  0  0  0  0  0  0  0  0
    4.8730    5.4872    0.0000 C   0  0  0  0  0  0  0  0  0  0  0  0
    6.1718    6.2376    0.0000 O   0  0  0  0  0  0  0  0  0  0  0  0
    6.1714    7.7376    0.0000 C   0  0  0  0  0  0  0  0  0  0  0  0
    0.9740    6.2368    0.0000 C   0  0  0  0  0  0  0  0  0  0  0  0
    0.9745    3.2364    0.0000 C   0  0  0  0  0  0  0  0  0  0  0  0
   -0.3248    3.9859    0.0000 C   0  0  0  0  0  0  0  0  0  0  0  0
   -1.6199    3.2291    0.0000 C   0  0  0  0  0  0  0  0  0  0  0  0
   -2.9082    3.9473    0.0000 C   0  0  0  0  0  0  0  0  0  0  0  0
   -2.9418    5.4912    0.0000 C   0  0  0  0  0  0  0  0  0  0  0  0
   -4.2508    6.2236    0.0000 O   0  0  0  0  0  0  0  0  0  0  0  0
   -5.5396    5.4562    0.0000 C   0  0  0  0  0  0  0  0  0  0  0  0
   -6.8486    6.1886    0.0000 C   0  0  0  0  0  0  0  0  0  0  0  0
   -1.6467    6.2480    0.0000 C   0  0  0  0  0  0  0  0  0  0  0  0
   -0.3180    5.4609    0.0000 C   0  0  0  0  0  0  0  0  0  0  0  0
    0.9750    1.7364    0.0000 O   0  0  0  0  0  0  0  0  0  0  0  0
  1  2  1  0  0  0  0
  2  3  1  0  0  0  0
  3  4  1  1  0  0  0
  3  5  1  0  0  0  0
  5  6  1  6  0  0  0
  5  7  1  0  0  0  0
  7  8  1  1  0  0  0
  7  9  1  0  0  0  0
  1  9  1  0  0  0  0
  9 10  1  6  0  0  0
 10 11  1  0  0  0  0
  2 12  1  6  0  0  0
 12 13  2  0  0  0  0
 13 14  1  0  0  0  0
 14 15  2  0  0  0  0
 15 16  1  0  0  0  0
 16 17  2  0  0  0  0
 12 17  1  0  0  0  0
 17 18  1  0  0  0  0
 18 19  1  0  0  0  0
 15 20  1  0  0  0  0
 14 21  1  0  0  0  0
 21 22  1  0  0  0  0
 22 23  2  0  0  0  0
 23 24  1  0  0  0  0
 24 25  2  0  0  0  0
 25 26  1  0  0  0  0
 26 27  1  0  0  0  0
 27 28  1  0  0  0  0
 25 29  1  0  0  0  0
 29 30  2  0  0  0  0
 22 30  1  0  0  0  0
 31 21  1  0  0  0  0
M  END
> <InChI>
InChI=1S/C23H30O7S/c1-4-30-14-7-5-13(6-8-14)19(25)15-10-16(17(29-3)9-12(15)2)23-22(28)21(27)20(26)18(11-24)31-23/h5-10,18-28H,4,11H2,1-3H3/t18-,19?,20-,21+,22-,23+/m1/s1

> <InChIKey>
FHNYRXDTZNDMRY-ZOBQWYLZSA-N

> <SMILES>
S1[C@H]([C@H](O)[C@@H](O)[C@H](O)[C@H]1CO)C2=CC(=C(C=C2OC)C)C(C3=CC=C(OCC)C=C3)O

> <Synonyms>


> <PUBCHEM_CID>


> <Molecular_formula>
C23H30O7S

> <Major_Isotope_Mass>
450.17122429999995

> <ALogP>
1.9930999999999999

> <Lipinski_Violations>
0

> <Insecticide_Likeness_Violations>
1

> <Post_Em_Herbicide_Likeness_Violations>
1

> <Metabolite_ID>
BTM00001

> <Reaction>
Hydroxylation of non-terminal aliphatic carbon adjacent to aromatic ring

> <Reaction_ID>
BTMR1077

> <Enzyme(s)>
CYP1A2
CYP2C8
CYP2C9
CYP2D6
CYP3A4

> <Biosystem>
HUMAN

> <Precursor_ID>
TEST0045_Luseogliflozin

> <Precursor_SMILES>
S1[C@H]([C@H](O)[C@@H](O)[C@H](O)[C@H]1CO)C2=CC(=C(C=C2OC)C)CC3=CC=C(OCC)C=C3

> <Precursor_InChI>
InChI=1S/C23H30O6S/c1-4-29-16-7-5-14(6-8-16)10-15-11-17(18(28-3)9-13(15)2)23-22(27)21(26)20(25)19(12-24)30-23/h5-9,11,19-27H,4,10,12H2,1-3H3/t19-,20-,21+,22-,23+/m1/s1

> <Precursor_InChIKey>
WHSOLWOTCHFFBK-ZQGJOIPISA-N

> <Precursor_ALogP>
2.960000

> <Precursor_Major_Isotope_Mass>
434.1763

$$$$
BTM00002
  CDK     08072417422D

 28 30  0  0  1  0  0  0  0  0999 V2000
    5.5382    2.8360    0.0000 S   0  0  0  0  0  0  0  0  0  0  0  0
    4.2391    2.0860    0.0000 C   0  0  2  0  0  0  0  0  0  0  0  0
    4.2391    0.5860    0.0000 C   0  0  2  0  0  0  0  0  0  0  0  0
    2.9401   -0.1640    0.0000 O   0  0  0  0  0  0  0  0  0  0  0  0
    5.5382   -0.1640    0.0000 C   0  0  1  0  0  0  0  0  0  0  0  0
    5.5382   -1.6640    0.0000 O   0  0  0  0  0  0  0  0  0  0  0  0
    6.8372    0.5860    0.0000 C   0  0  2  0  0  0  0  0  0  0  0  0
    8.1362   -0.1640    0.0000 O   0  0  0  0  0  0  0  0  0  0  0  0
    6.8372    2.0860    0.0000 C   0  0  1  0  0  0  0  0  0  0  0  0
    8.1362    2.8360    0.0000 C   0  0  0  0  0  0  0  0  0  0  0  0
    8.1362    4.3360    0.0000 O   0  0  0  0  0  0  0  0  0  0  0  0
    2.9401    2.8360    0.0000 C   0  0  0  0  0  0  0  0  0  0  0  0
    1.6402    2.0858    0.0000 C   0  0  0  0  0  0  0  0  0  0  0  0
    0.3401    2.8356    0.0000 C   0  0  0  0  0  0  0  0  0  0  0  0
    0.3398    4.3356    0.0000 C   0  0  0  0  0  0  0  0  0  0  0  0
    1.6397    5.0858    0.0000 C   0  0  0  0  0  0  0  0  0  0  0  0
    2.9398    4.3360    0.0000 C   0  0  0  0  0  0  0  0  0  0  0  0
    4.2386    5.0864    0.0000 O   0  0  0  0  0  0  0  0  0  0  0  0
    4.2382    6.5864    0.0000 C   0  0  0  0  0  0  0  0  0  0  0  0
   -0.9592    5.0856    0.0000 C   0  0  0  0  0  0  0  0  0  0  0  0
   -0.9587    2.0852    0.0000 C   0  0  0  0  0  0  0  0  0  0  0  0
   -2.2580    2.8348    0.0000 C   0  0  0  0  0  0  0  0  0  0  0  0
   -3.5531    2.0780    0.0000 C   0  0  0  0  0  0  0  0  0  0  0  0
   -4.8414    2.7961    0.0000 C   0  0  0  0  0  0  0  0  0  0  0  0
   -4.8750    4.3400    0.0000 C   0  0  0  0  0  0  0  0  0  0  0  0
   -6.1840    5.0725    0.0000 O   0  0  0  0  0  0  0  0  0  0  0  0
   -3.5799    5.0968    0.0000 C   0  0  0  0  0  0  0  0  0  0  0  0
   -2.2512    4.3097    0.0000 C   0  0  0  0  0  0  0  0  0  0  0  0
  1  2  1  0  0  0  0
  2  3  1  0  0  0  0
  3  4  1  1  0  0  0
  3  5  1  0  0  0  0
  5  6  1  6  0  0  0
  5  7  1  0  0  0  0
  7  8  1  1  0  0  0
  7  9  1  0  0  0  0
  1  9  1  0  0  0  0
  9 10  1  6  0  0  0
 10 11  1  0  0  0  0
  2 12  1  6  0  0  0
 12 13  2  0  0  0  0
 13 14  1  0  0  0  0
 14 15  2  0  0  0  0
 15 16  1  0  0  0  0
 16 17  2  0  0  0  0
 12 17  1  0  0  0  0
 17 18  1  0  0  0  0
 18 19  1  0  0  0  0
 15 20  1  0  0  0  0
 14 21  1  0  0  0  0
 21 22  1  0  0  0  0
 22 23  2  0  0  0  0
 23 24  1  0  0  0  0
 24 25  2  0  0  0  0
 25 26  1  0  0  0  0
 25 27  1  0  0  0  0
 27 28  2  0  0  0  0
 22 28  1  0  0  0  0
M  END
> <InChI>
InChI=1S/C21H26O6S/c1-11-7-16(27-2)15(9-13(11)8-12-3-5-14(23)6-4-12)21-20(26)19(25)18(24)17(10-22)28-21/h3-7,9,17-26H,8,10H2,1-2H3/t17-,18-,19+,20-,21+/m1/s1

> <InChIKey>
SMYXZXQSNDBDPV-ADAARDCZSA-N

> <SMILES>
S1[C@H]([C@H](O)[C@@H](O)[C@H](O)[C@H]1CO)C2=CC(=C(C=C2OC)C)CC3=CC=C(O)C=C3

> <Synonyms>


> <PUBCHEM_CID>


> <Molecular_formula>
C21H26O6S

> <Major_Isotope_Mass>
406.14500955200003

> <ALogP>
2.3602000000000003

> <Lipinski_Violations>
0

> <Insecticide_Likeness_Violations>
1

> <Post_Em_Herbicide_Likeness_Violations>
1

> <Metabolite_ID>
BTM00002

> <Reaction>
O-Dealkylation

> <Reaction_ID>
BTMR0052

> <Enzyme(s)>
CYP1A2
CYP2A6
CYP2C9
CYP2C19
CYP2D6
CYP2E1
CYP3A4

> <Biosystem>
HUMAN

> <Precursor_ID>
TEST0045_Luseogliflozin

> <Precursor_SMILES>
S1[C@H]([C@H](O)[C@@H](O)[C@H](O)[C@H]1CO)C2=CC(=C(C=C2OC)C)CC3=CC=C(OCC)C=C3

> <Precursor_InChI>
InChI=1S/C23H30O6S/c1-4-29-16-7-5-14(6-8-16)10-15-11-17(18(28-3)9-13(15)2)23-22(27)21(26)20(25)19(12-24)30-23/h5-9,11,19-27H,4,10,12H2,1-3H3/t19-,20-,21+,22-,23+/m1/s1

> <Precursor_InChIKey>
WHSOLWOTCHFFBK-ZQGJOIPISA-N

> <Precursor_ALogP>
2.960000

> <Precursor_Major_Isotope_Mass>
434.1763

$$$$
BTM00003
  CDK     08072417422D

  3  2  0  0  0  0  0  0  0  0999 V2000
   -0.0000    0.7500    0.0000 C   0  0  0  0  0  0  0  0  0  0  0  0
   -1.2990    0.0000    0.0000 C   0  0  0  0  0  0  0  0  0  0  0  0
    0.0000    2.2500    0.0000 O   0  0  0  0  0  0  0  0  0  0  0  0
  1  2  1  0  0  0  0
  1  3  2  0  0  0  0
M  END
> <InChI>
InChI=1S/C2H4O/c1-2-3/h2H,1H3

> <InChIKey>
IKHGUXGNUITLKF-UHFFFAOYSA-N

> <SMILES>
C(C)=O

> <Synonyms>


> <PUBCHEM_CID>


> <Molecular_formula>
C2H4O

> <Major_Isotope_Mass>
44.026214748

> <ALogP>
-0.1825

> <Lipinski_Violations>
0

> <Insecticide_Likeness_Violations>
0

> <Post_Em_Herbicide_Likeness_Violations>
0

> <Metabolite_ID>
BTM00003

> <Reaction>
O-Dealkylation

> <Reaction_ID>
BTMR0052

> <Enzyme(s)>
CYP1A2
CYP2A6
CYP2C9
CYP2C19
CYP2D6
CYP2E1
CYP3A4

> <Biosystem>
HUMAN

> <Precursor_ID>
TEST0045_Luseogliflozin

> <Precursor_SMILES>
S1[C@H]([C@H](O)[C@@H](O)[C@H](O)[C@H]1CO)C2=CC(=C(C=C2OC)C)CC3=CC=C(OCC)C=C3

> <Precursor_InChI>
InChI=1S/C23H30O6S/c1-4-29-16-7-5-14(6-8-16)10-15-11-17(18(28-3)9-13(15)2)23-22(27)21(26)20(25)19(12-24)30-23/h5-9,11,19-27H,4,10,12H2,1-3H3/t19-,20-,21+,22-,23+/m1/s1

> <Precursor_InChIKey>
WHSOLWOTCHFFBK-ZQGJOIPISA-N

> <Precursor_ALogP>
2.960000

> <Precursor_Major_Isotope_Mass>
434.1763

$$$$
BTM00004
  CDK     08072417422D

 29 31  0  0  1  0  0  0  0  0999 V2000
    7.4714    3.9872    0.0000 S   0  0  0  0  0  0  0  0  0  0  0  0
    6.1723    3.2372    0.0000 C   0  0  2  0  0  0  0  0  0  0  0  0
    6.1723    1.7372    0.0000 C   0  0  2  0  0  0  0  0  0  0  0  0
    4.8733    0.9872    0.0000 O   0  0  0  0  0  0  0  0  0  0  0  0
    7.4714    0.9872    0.0000 C   0  0  1  0  0  0  0  0  0  0  0  0
    7.4714   -0.5128    0.0000 O   0  0  0  0  0  0  0  0  0  0  0  0
    8.7704    1.7372    0.0000 C   0  0  2  0  0  0  0  0  0  0  0  0
   10.0694    0.9872    0.0000 O   0  0  0  0  0  0  0  0  0  0  0  0
    8.7704    3.2372    0.0000 C   0  0  1  0  0  0  0  0  0  0  0  0
   10.0694    3.9872    0.0000 C   0  0  0  0  0  0  0  0  0  0  0  0
   10.0694    5.4872    0.0000 O   0  0  0  0  0  0  0  0  0  0  0  0
    4.8733    3.9872    0.0000 C   0  0  0  0  0  0  0  0  0  0  0  0
    3.5734    3.2370    0.0000 C   0  0  0  0  0  0  0  0  0  0  0  0
    2.2733    3.9868    0.0000 C   0  0  0  0  0  0  0  0  0  0  0  0
    2.2730    5.4868    0.0000 C   0  0  0  0  0  0  0  0  0  0  0  0
    3.5729    6.2370    0.0000 C   0  0  0  0  0  0  0  0  0  0  0  0
    4.8730    5.4872    0.0000 C   0  0  0  0  0  0  0  0  0  0  0  0
    6.1718    6.2376    0.0000 O   0  0  0  0  0  0  0  0  0  0  0  0
    0.9740    6.2368    0.0000 C   0  0  0  0  0  0  0  0  0  0  0  0
    0.9745    3.2364    0.0000 C   0  0  0  0  0  0  0  0  0  0  0  0
   -0.3248    3.9859    0.0000 C   0  0  0  0  0  0  0  0  0  0  0  0
   -1.6199    3.2291    0.0000 C   0  0  0  0  0  0  0  0  0  0  0  0
   -2.9082    3.9473    0.0000 C   0  0  0  0  0  0  0  0  0  0  0  0
   -2.9418    5.4912    0.0000 C   0  0  0  0  0  0  0  0  0  0  0  0
   -4.2508    6.2236    0.0000 O   0  0  0  0  0  0  0  0  0  0  0  0
   -5.5396    5.4562    0.0000 C   0  0  0  0  0  0  0  0  0  0  0  0
   -6.8486    6.1886    0.0000 C   0  0  0  0  0  0  0  0  0  0  0  0
   -1.6467    6.2480    0.0000 C   0  0  0  0  0  0  0  0  0  0  0  0
   -0.3180    5.4609    0.0000 C   0  0  0  0  0  0  0  0  0  0  0  0
  1  2  1  0  0  0  0
  2  3  1  0  0  0  0
  3  4  1  1  0  0  0
  3  5  1  0  0  0  0
  5  6  1  6  0  0  0
  5  7  1  0  0  0  0
  7  8  1  1  0  0  0
  7  9  1  0  0  0  0
  1  9  1  0  0  0  0
  9 10  1  6  0  0  0
 10 11  1  0  0  0  0
  2 12  1  6  0  0  0
 12 13  2  0  0  0  0
 13 14  1  0  0  0  0
 14 15  2  0  0  0  0
 15 16  1  0  0  0  0
 16 17  2  0  0  0  0
 12 17  1  0  0  0  0
 17 18  1  0  0  0  0
 15 19  1  0  0  0  0
 14 20  1  0  0  0  0
 20 21  1  0  0  0  0
 21 22  2  0  0  0  0
 22 23  1  0  0  0  0
 23 24  2  0  0  0  0
 24 25  1  0  0  0  0
 25 26  1  0  0  0  0
 26 27  1  0  0  0  0
 24 28  1  0  0  0  0
 28 29  2  0  0  0  0
 21 29  1  0  0  0  0
M  END
> <InChI>
InChI=1S/C22H28O6S/c1-3-28-15-6-4-13(5-7-15)9-14-10-16(17(24)8-12(14)2)22-21(27)20(26)19(25)18(11-23)29-22/h4-8,10,18-27H,3,9,11H2,1-2H3/t18-,19-,20+,21-,22+/m1/s1

> <InChIKey>
KBUPQDLZLKTMBB-BDHVOXNPSA-N

> <SMILES>
S1[C@H]([C@H](O)[C@@H](O)[C@H](O)[C@H]1CO)C2=CC(=C(C=C2O)C)CC3=CC=C(OCC)C=C3

> <Synonyms>


> <PUBCHEM_CID>


> <Molecular_formula>
C22H28O6S

> <Major_Isotope_Mass>
420.160659616

> <ALogP>
2.7089999999999996

> <Lipinski_Violations>
0

> <Insecticide_Likeness_Violations>
1

> <Post_Em_Herbicide_Likeness_Violations>
1

> <Metabolite_ID>
BTM00004

> <Reaction>
O-Dealkylation

> <Reaction_ID>
BTMR0052

> <Enzyme(s)>
CYP1A2
CYP2A6
CYP2C9
CYP2C19
CYP2D6
CYP2E1
CYP3A4

> <Biosystem>
HUMAN

> <Precursor_ID>
TEST0045_Luseogliflozin

> <Precursor_SMILES>
S1[C@H]([C@H](O)[C@@H](O)[C@H](O)[C@H]1CO)C2=CC(=C(C=C2OC)C)CC3=CC=C(OCC)C=C3

> <Precursor_InChI>
InChI=1S/C23H30O6S/c1-4-29-16-7-5-14(6-8-16)10-15-11-17(18(28-3)9-13(15)2)23-22(27)21(26)20(25)19(12-24)30-23/h5-9,11,19-27H,4,10,12H2,1-3H3/t19-,20-,21+,22-,23+/m1/s1

> <Precursor_InChIKey>
WHSOLWOTCHFFBK-ZQGJOIPISA-N

> <Precursor_ALogP>
2.960000

> <Precursor_Major_Isotope_Mass>
434.1763

$$$$
BTM00005
  CDK     08072417422D

 31 33  0  0  1  0  0  0  0  0999 V2000
    7.4714    3.9872    0.0000 S   0  0  0  0  0  0  0  0  0  0  0  0
    6.1723    3.2372    0.0000 C   0  0  2  0  0  0  0  0  0  0  0  0
    6.1723    1.7372    0.0000 C   0  0  2  0  0  0  0  0  0  0  0  0
    4.8733    0.9872    0.0000 O   0  0  0  0  0  0  0  0  0  0  0  0
    7.4714    0.9872    0.0000 C   0  0  1  0  0  0  0  0  0  0  0  0
    7.4714   -0.5128    0.0000 O   0  0  0  0  0  0  0  0  0  0  0  0
    8.7704    1.7372    0.0000 C   0  0  2  0  0  0  0  0  0  0  0  0
   10.0694    0.9872    0.0000 O   0  0  0  0  0  0  0  0  0  0  0  0
    8.7704    3.2372    0.0000 C   0  0  1  0  0  0  0  0  0  0  0  0
   10.0694    3.9872    0.0000 C   0  0  0  0  0  0  0  0  0  0  0  0
   10.0694    5.4872    0.0000 O   0  0  0  0  0  0  0  0  0  0  0  0
    4.8733    3.9872    0.0000 C   0  0  0  0  0  0  0  0  0  0  0  0
    3.5734    3.2370    0.0000 C   0  0  0  0  0  0  0  0  0  0  0  0
    2.2733    3.9868    0.0000 C   0  0  0  0  0  0  0  0  0  0  0  0
    2.2730    5.4868    0.0000 C   0  0  0  0  0  0  0  0  0  0  0  0
    3.5729    6.2370    0.0000 C   0  0  0  0  0  0  0  0  0  0  0  0
    4.8730    5.4872    0.0000 C   0  0  0  0  0  0  0  0  0  0  0  0
    6.1718    6.2376    0.0000 O   0  0  0  0  0  0  0  0  0  0  0  0
    6.1714    7.7376    0.0000 C   0  0  0  0  0  0  0  0  0  0  0  0
    0.9740    6.2368    0.0000 C   0  0  0  0  0  0  0  0  0  0  0  0
    0.9745    3.2364    0.0000 C   0  0  0  0  0  0  0  0  0  0  0  0
   -0.3248    3.9859    0.0000 C   0  0  0  0  0  0  0  0  0  0  0  0
   -1.6199    3.2291    0.0000 C   0  0  0  0  0  0  0  0  0  0  0  0
   -2.9082    3.9473    0.0000 C   0  0  0  0  0  0  0  0  0  0  0  0
   -2.9418    5.4912    0.0000 C   0  0  0  0  0  0  0  0  0  0  0  0
   -4.2508    6.2236    0.0000 O   0  0  0  0  0  0  0  0  0  0  0  0
   -5.5396    5.4562    0.0000 C   0  0  0  0  0  0  0  0  0  0  0  0
   -6.8486    6.1886    0.0000 C   0  0  0  0  0  0  0  0  0  0  0  0
   -1.6467    6.2480    0.0000 C   0  0  0  0  0  0  0  0  0  0  0  0
   -0.3180    5.4609    0.0000 C   0  0  0  0  0  0  0  0  0  0  0  0
    0.9740    7.7368    0.0000 O   0  0  0  0  0  0  0  0  0  0  0  0
  1  2  1  0  0  0  0
  2  3  1  0  0  0  0
  3  4  1  1  0  0  0
  3  5  1  0  0  0  0
  5  6  1  6  0  0  0
  5  7  1  0  0  0  0
  7  8  1  1  0  0  0
  7  9  1  0  0  0  0
  1  9  1  0  0  0  0
  9 10  1  6  0  0  0
 10 11  1  0  0  0  0
  2 12  1  6  0  0  0
 12 13  2  0  0  0  0
 13 14  1  0  0  0  0
 14 15  2  0  0  0  0
 15 16  1  0  0  0  0
 16 17  2  0  0  0  0
 12 17  1  0  0  0  0
 17 18  1  0  0  0  0
 18 19  1  0  0  0  0
 15 20  1  0  0  0  0
 14 21  1  0  0  0  0
 21 22  1  0  0  0  0
 22 23  2  0  0  0  0
 23 24  1  0  0  0  0
 24 25  2  0  0  0  0
 25 26  1  0  0  0  0
 26 27  1  0  0  0  0
 27 28  1  0  0  0  0
 25 29  1  0  0  0  0
 29 30  2  0  0  0  0
 22 30  1  0  0  0  0
 31 20  1  0  0  0  0
M  END
> <InChI>
InChI=1S/C23H30O7S/c1-3-30-16-6-4-13(5-7-16)8-14-9-17(18(29-2)10-15(14)11-24)23-22(28)21(27)20(26)19(12-25)31-23/h4-7,9-10,19-28H,3,8,11-12H2,1-2H3/t19-,20-,21+,22-,23+/m1/s1

> <InChIKey>
IZYWAJIDGSABPQ-ZQGJOIPISA-N

> <SMILES>
S1[C@H]([C@H](O)[C@@H](O)[C@H](O)[C@H]1CO)C2=CC(=C(C=C2OC)CO)CC3=CC=C(OCC)C=C3

> <Synonyms>


> <PUBCHEM_CID>


> <Molecular_formula>
C23H30O7S

> <Major_Isotope_Mass>
450.17122429999995

> <ALogP>
1.8692999999999989

> <Lipinski_Violations>
0

> <Insecticide_Likeness_Violations>
1

> <Post_Em_Herbicide_Likeness_Violations>
1

> <Metabolite_ID>
BTM00005

> <Reaction>
Aliphatic hydroxylation of methyl carbon adjacent to aromatic ring

> <Reaction_ID>
BTMR1058

> <Enzyme(s)>
CYP1A2
CYP2A6
CYP2B6
CYP2C8
CYP2C9
CYP2C19
CYP2D6
CYP2E1
CYP3A4

> <Biosystem>
HUMAN

> <Precursor_ID>
TEST0045_Luseogliflozin

> <Precursor_SMILES>
S1[C@H]([C@H](O)[C@@H](O)[C@H](O)[C@H]1CO)C2=CC(=C(C=C2OC)C)CC3=CC=C(OCC)C=C3

> <Precursor_InChI>
InChI=1S/C23H30O6S/c1-4-29-16-7-5-14(6-8-16)10-15-11-17(18(28-3)9-13(15)2)23-22(27)21(26)20(25)19(12-24)30-23/h5-9,11,19-27H,4,10,12H2,1-3H3/t19-,20-,21+,22-,23+/m1/s1

> <Precursor_InChIKey>
WHSOLWOTCHFFBK-ZQGJOIPISA-N

> <Precursor_ALogP>
2.960000

> <Precursor_Major_Isotope_Mass>
434.1763

$$$$
BTM00006
  CDK     08072417422D

 31 33  0  0  1  0  0  0  0  0999 V2000
    7.4714    3.9872    0.0000 S   0  0  0  0  0  0  0  0  0  0  0  0
    6.1723    3.2372    0.0000 C   0  0  2  0  0  0  0  0  0  0  0  0
    6.1723    1.7372    0.0000 C   0  0  2  0  0  0  0  0  0  0  0  0
    4.8733    0.9872    0.0000 O   0  0  0  0  0  0  0  0  0  0  0  0
    7.4714    0.9872    0.0000 C   0  0  1  0  0  0  0  0  0  0  0  0
    7.4714   -0.5128    0.0000 O   0  0  0  0  0  0  0  0  0  0  0  0
    8.7704    1.7372    0.0000 C   0  0  2  0  0  0  0  0  0  0  0  0
   10.0694    0.9872    0.0000 O   0  0  0  0  0  0  0  0  0  0  0  0
    8.7704    3.2372    0.0000 C   0  0  1  0  0  0  0  0  0  0  0  0
   10.0694    3.9872    0.0000 C   0  0  0  0  0  0  0  0  0  0  0  0
   10.0694    5.4872    0.0000 O   0  0  0  0  0  0  0  0  0  0  0  0
    4.8733    3.9872    0.0000 C   0  0  0  0  0  0  0  0  0  0  0  0
    3.5734    3.2370    0.0000 C   0  0  0  0  0  0  0  0  0  0  0  0
    2.2733    3.9868    0.0000 C   0  0  0  0  0  0  0  0  0  0  0  0
    2.2730    5.4868    0.0000 C   0  0  0  0  0  0  0  0  0  0  0  0
    3.5729    6.2370    0.0000 C   0  0  0  0  0  0  0  0  0  0  0  0
    4.8730    5.4872    0.0000 C   0  0  0  0  0  0  0  0  0  0  0  0
    6.1718    6.2376    0.0000 O   0  0  0  0  0  0  0  0  0  0  0  0
    6.1714    7.7376    0.0000 C   0  0  0  0  0  0  0  0  0  0  0  0
    0.9740    6.2368    0.0000 C   0  0  0  0  0  0  0  0  0  0  0  0
    0.9745    3.2364    0.0000 C   0  0  0  0  0  0  0  0  0  0  0  0
   -0.3248    3.9859    0.0000 C   0  0  0  0  0  0  0  0  0  0  0  0
   -1.6199    3.2291    0.0000 C   0  0  0  0  0  0  0  0  0  0  0  0
   -2.9082    3.9473    0.0000 C   0  0  0  0  0  0  0  0  0  0  0  0
   -2.9418    5.4912    0.0000 C   0  0  0  0  0  0  0  0  0  0  0  0
   -4.2508    6.2236    0.0000 O   0  0  0  0  0  0  0  0  0  0  0  0
   -5.5396    5.4562    0.0000 C   0  0  0  0  0  0  0  0  0  0  0  0
   -6.8486    6.1886    0.0000 C   0  0  0  0  0  0  0  0  0  0  0  0
   -1.6467    6.2480    0.0000 C   0  0  0  0  0  0  0  0  0  0  0  0
   -0.3180    5.4609    0.0000 C   0  0  0  0  0  0  0  0  0  0  0  0
    7.4714    5.4872    0.0000 O   0  0  0  0  0  0  0  0  0  0  0  0
  1  2  1  0  0  0  0
  2  3  1  0  0  0  0
  3  4  1  1  0  0  0
  3  5  1  0  0  0  0
  5  6  1  6  0  0  0
  5  7  1  0  0  0  0
  7  8  1  1  0  0  0
  7  9  1  0  0  0  0
  1  9  1  0  0  0  0
  9 10  1  6  0  0  0
 10 11  1  0  0  0  0
  2 12  1  6  0  0  0
 12 13  2  0  0  0  0
 13 14  1  0  0  0  0
 14 15  2  0  0  0  0
 15 16  1  0  0  0  0
 16 17  2  0  0  0  0
 12 17  1  0  0  0  0
 17 18  1  0  0  0  0
 18 19  1  0  0  0  0
 15 20  1  0  0  0  0
 14 21  1  0  0  0  0
 21 22  1  0  0  0  0
 22 23  2  0  0  0  0
 23 24  1  0  0  0  0
 24 25  2  0  0  0  0
 25 26  1  0  0  0  0
 26 27  1  0  0  0  0
 27 28  1  0  0  0  0
 25 29  1  0  0  0  0
 29 30  2  0  0  0  0
 22 30  1  0  0  0  0
  1 31  2  0  0  0  0
M  END
> <InChI>
InChI=1S/C23H30O7S/c1-4-30-16-7-5-14(6-8-16)10-15-11-17(18(29-3)9-13(15)2)23-22(27)21(26)20(25)19(12-24)31(23)28/h5-9,11,19-27H,4,10,12H2,1-3H3/t19-,20-,21+,22-,23+,31?/m1/s1

> <InChIKey>
SUVHBUIFKALVJW-KWEZJBCHSA-N

> <SMILES>
S1([C@H]([C@H](O)[C@@H](O)[C@H](O)[C@H]1CO)C2=CC(=C(C=C2OC)C)CC3=CC=C(OCC)C=C3)=O

> <Synonyms>


> <PUBCHEM_CID>


> <Molecular_formula>
C23H30O7S

> <Major_Isotope_Mass>
450.17122429999995

> <ALogP>
1.8482000000000007

> <Lipinski_Violations>
0

> <Insecticide_Likeness_Violations>
1

> <Post_Em_Herbicide_Likeness_Violations>
1

> <Metabolite_ID>
BTM00006

> <Reaction>
S-Oxidation of dialkylthioether to sulfoxide

> <Reaction_ID>
BTMR0057

> <Enzyme(s)>
CYP1A2
CYP2A6
CYP2B6
CYP2C9
CYP2C19
CYP2D6
CYP3A4

> <Biosystem>
HUMAN

> <Precursor_ID>
TEST0045_Luseogliflozin

> <Precursor_SMILES>
S1[C@H]([C@H](O)[C@@H](O)[C@H](O)[C@H]1CO)C2=CC(=C(C=C2OC)C)CC3=CC=C(OCC)C=C3

> <Precursor_InChI>
InChI=1S/C23H30O6S/c1-4-29-16-7-5-14(6-8-16)10-15-11-17(18(28-3)9-13(15)2)23-22(27)21(26)20(25)19(12-24)30-23/h5-9,11,19-27H,4,10,12H2,1-3H3/t19-,20-,21+,22-,23+/m1/s1

> <Precursor_InChIKey>
WHSOLWOTCHFFBK-ZQGJOIPISA-N

> <Precursor_ALogP>
2.960000

> <Precursor_Major_Isotope_Mass>
434.1763

$$$$
BTM00007
  CDK     08072417422D

 30 32  0  0  1  0  0  0  0  0999 V2000
    7.4714    3.9872    0.0000 S   0  0  0  0  0  0  0  0  0  0  0  0
    6.1723    3.2372    0.0000 C   0  0  2  0  0  0  0  0  0  0  0  0
    6.1723    1.7372    0.0000 C   0  0  2  0  0  0  0  0  0  0  0  0
    4.8733    0.9872    0.0000 O   0  0  0  0  0  0  0  0  0  0  0  0
    7.4714    0.9872    0.0000 C   0  0  1  0  0  0  0  0  0  0  0  0
    7.4714   -0.5128    0.0000 O   0  0  0  0  0  0  0  0  0  0  0  0
    8.7704    1.7372    0.0000 C   0  0  2  0  0  0  0  0  0  0  0  0
   10.0694    0.9872    0.0000 O   0  0  0  0  0  0  0  0  0  0  0  0
    8.7704    3.2372    0.0000 C   0  0  1  0  0  0  0  0  0  0  0  0
   10.0694    3.9872    0.0000 C   0  0  0  0  0  0  0  0  0  0  0  0
   10.0694    5.4872    0.0000 O   0  0  0  0  0  0  0  0  0  0  0  0
    4.8733    3.9872    0.0000 C   0  0  0  0  0  0  0  0  0  0  0  0
    3.5734    3.2370    0.0000 C   0  0  0  0  0  0  0  0  0  0  0  0
    2.2733    3.9868    0.0000 C   0  0  0  0  0  0  0  0  0  0  0  0
    2.2730    5.4868    0.0000 C   0  0  0  0  0  0  0  0  0  0  0  0
    3.5729    6.2370    0.0000 C   0  0  0  0  0  0  0  0  0  0  0  0
    4.8730    5.4872    0.0000 C   0  0  0  0  0  0  0  0  0  0  0  0
    6.1718    6.2376    0.0000 O   0  0  0  0  0  0  0  0  0  0  0  0
    6.1714    7.7376    0.0000 C   0  0  0  0  0  0  0  0  0  0  0  0
    0.9740    6.2368    0.0000 C   0  0  0  0  0  0  0  0  0  0  0  0
    0.9745    3.2364    0.0000 C   0  0  0  0  0  0  0  0  0  0  0  0
   -0.3248    3.9859    0.0000 C   0  0  0  0  0  0  0  0  0  0  0  0
   -1.6199    3.2291    0.0000 C   0  0  0  0  0  0  0  0  0  0  0  0
   -2.9082    3.9473    0.0000 C   0  0  0  0  0  0  0  0  0  0  0  0
   -2.9418    5.4912    0.0000 C   0  0  0  0  0  0  0  0  0  0  0  0
   -4.2508    6.2236    0.0000 O   0  0  0  0  0  0  0  0  0  0  0  0
   -5.5396    5.4562    0.0000 C   0  0  0  0  0  0  0  0  0  0  0  0
   -6.8486    6.1886    0.0000 C   0  0  0  0  0  0  0  0  0  0  0  0
   -1.6467    6.2480    0.0000 C   0  0  0  0  0  0  0  0  0  0  0  0
   -0.3180    5.4609    0.0000 C   0  0  0  0  0  0  0  0  0  0  0  0
  1  2  1  0  0  0  0
  2  3  1  0  0  0  0
  3  4  1  1  0  0  0
  3  5  1  0  0  0  0
  5  6  1  6  0  0  0
  5  7  1  0  0  0  0
  7  8  1  1  0  0  0
  7  9  1  0  0  0  0
  1  9  1  0  0  0  0
  9 10  1  6  0  0  0
 10 11  2  0  0  0  0
  2 12  1  6  0  0  0
 12 13  2  0  0  0  0
 13 14  1  0  0  0  0
 14 15  2  0  0  0  0
 15 16  1  0  0  0  0
 16 17  2  0  0  0  0
 12 17  1  0  0  0  0
 17 18  1  0  0  0  0
 18 19  1  0  0  0  0
 15 20  1  0  0  0  0
 14 21  1  0  0  0  0
 21 22  1  0  0  0  0
 22 23  2  0  0  0  0
 23 24  1  0  0  0  0
 24 25  2  0  0  0  0
 25 26  1  0  0  0  0
 26 27  1  0  0  0  0
 27 28  1  0  0  0  0
 25 29  1  0  0  0  0
 29 30  2  0  0  0  0
 22 30  1  0  0  0  0
M  END
> <InChI>
InChI=1S/C23H28O6S/c1-4-29-16-7-5-14(6-8-16)10-15-11-17(18(28-3)9-13(15)2)23-22(27)21(26)20(25)19(12-24)30-23/h5-9,11-12,19-23,25-27H,4,10H2,1-3H3/t19-,20-,21+,22-,23+/m1/s1

> <InChIKey>
YXSBFYNYJOMSOU-ZQGJOIPISA-N

> <SMILES>
S1[C@H]([C@H](O)[C@@H](O)[C@H](O)[C@H]1C=O)C2=CC(=C(C=C2OC)C)CC3=CC=C(OCC)C=C3

> <Synonyms>


> <PUBCHEM_CID>


> <Molecular_formula>
C23H28O6S

> <Major_Isotope_Mass>
432.160659616

> <ALogP>
3.2163000000000004

> <Lipinski_Violations>
0

> <Insecticide_Likeness_Violations>
1

> <Post_Em_Herbicide_Likeness_Violations>
1

> <Metabolite_ID>
BTM00007

> <Reaction>
Oxidation of primary alcohol to aldehyde

> <Reaction_ID>
BTMR0105

> <Enzyme(s)>
CYP1A2
CYP2E1
CYP3A4

> <Biosystem>
HUMAN

> <Precursor_ID>
TEST0045_Luseogliflozin

> <Precursor_SMILES>
S1[C@H]([C@H](O)[C@@H](O)[C@H](O)[C@H]1CO)C2=CC(=C(C=C2OC)C)CC3=CC=C(OCC)C=C3

> <Precursor_InChI>
InChI=1S/C23H30O6S/c1-4-29-16-7-5-14(6-8-16)10-15-11-17(18(28-3)9-13(15)2)23-22(27)21(26)20(25)19(12-24)30-23/h5-9,11,19-27H,4,10,12H2,1-3H3/t19-,20-,21+,22-,23+/m1/s1

> <Precursor_InChIKey>
WHSOLWOTCHFFBK-ZQGJOIPISA-N

> <Precursor_ALogP>
2.960000

> <Precursor_Major_Isotope_Mass>
434.1763

$$$$
BTM00008
  CDK     08072417422D

 31 33  0  0  1  0  0  0  0  0999 V2000
    8.1208    5.1121    0.0000 S   0  0  0  0  0  0  0  0  0  0  0  0
    6.8218    4.3621    0.0000 C   0  0  2  0  0  0  0  0  0  0  0  0
    6.8218    2.8621    0.0000 C   0  0  2  0  0  0  0  0  0  0  0  0
    5.5227    2.1121    0.0000 O   0  0  0  0  0  0  0  0  0  0  0  0
    8.1208    2.1121    0.0000 C   0  0  1  0  0  0  0  0  0  0  0  0
    8.1208    0.6121    0.0000 O   0  0  0  0  0  0  0  0  0  0  0  0
    9.4199    2.8621    0.0000 C   0  0  2  0  0  0  0  0  0  0  0  0
   10.7189    2.1121    0.0000 O   0  0  0  0  0  0  0  0  0  0  0  0
    9.4199    4.3621    0.0000 C   0  0  1  0  0  0  0  0  0  0  0  0
   10.7189    5.1121    0.0000 C   0  0  0  0  0  0  0  0  0  0  0  0
   10.7189    6.6121    0.0000 O   0  0  0  0  0  0  0  0  0  0  0  0
    5.5227    5.1121    0.0000 C   0  0  0  0  0  0  0  0  0  0  0  0
    4.2229    4.3619    0.0000 C   0  0  0  0  0  0  0  0  0  0  0  0
    2.9227    5.1117    0.0000 C   0  0  0  0  0  0  0  0  0  0  0  0
    2.9225    6.6117    0.0000 C   0  0  0  0  0  0  0  0  0  0  0  0
    4.2224    7.3619    0.0000 C   0  0  0  0  0  0  0  0  0  0  0  0
    5.5225    6.6121    0.0000 C   0  0  0  0  0  0  0  0  0  0  0  0
    6.8213    7.3625    0.0000 O   0  0  0  0  0  0  0  0  0  0  0  0
    6.8208    8.8625    0.0000 C   0  0  0  0  0  0  0  0  0  0  0  0
    1.6235    7.3617    0.0000 C   0  0  0  0  0  0  0  0  0  0  0  0
    1.6239    4.3613    0.0000 C   0  0  0  0  0  0  0  0  0  0  0  0
    0.3247    5.1108    0.0000 C   0  0  0  0  0  0  0  0  0  0  0  0
   -0.9704    4.3540    0.0000 C   0  0  0  0  0  0  0  0  0  0  0  0
   -2.2587    5.0722    0.0000 C   0  0  0  0  0  0  0  0  0  0  0  0
   -2.2923    6.6161    0.0000 C   0  0  0  0  0  0  0  0  0  0  0  0
   -3.6013    7.3485    0.0000 O   0  0  0  0  0  0  0  0  0  0  0  0
   -4.8901    6.5811    0.0000 C   0  0  0  0  0  0  0  0  0  0  0  0
   -6.1992    7.3135    0.0000 C   0  0  0  0  0  0  0  0  0  0  0  0
   -0.9972    7.3729    0.0000 C   0  0  0  0  0  0  0  0  0  0  0  0
    0.3314    6.5858    0.0000 C   0  0  0  0  0  0  0  0  0  0  0  0
   -7.4880    6.5460    0.0000 O   0  0  0  0  0  0  0  0  0  0  0  0
  1  2  1  0  0  0  0
  2  3  1  0  0  0  0
  3  4  1  1  0  0  0
  3  5  1  0  0  0  0
  5  6  1  6  0  0  0
  5  7  1  0  0  0  0
  7  8  1  1  0  0  0
  7  9  1  0  0  0  0
  1  9  1  0  0  0  0
  9 10  1  6  0  0  0
 10 11  1  0  0  0  0
  2 12  1  6  0  0  0
 12 13  2  0  0  0  0
 13 14  1  0  0  0  0
 14 15  2  0  0  0  0
 15 16  1  0  0  0  0
 16 17  2  0  0  0  0
 12 17  1  0  0  0  0
 17 18  1  0  0  0  0
 18 19  1  0  0  0  0
 15 20  1  0  0  0  0
 14 21  1  0  0  0  0
 21 22  1  0  0  0  0
 22 23  2  0  0  0  0
 23 24  1  0  0  0  0
 24 25  2  0  0  0  0
 25 26  1  0  0  0  0
 26 27  1  0  0  0  0
 27 28  1  0  0  0  0
 25 29  1  0  0  0  0
 29 30  2  0  0  0  0
 22 30  1  0  0  0  0
 31 28  1  0  0  0  0
M  END
> <InChI>
InChI=1S/C23H30O7S/c1-13-9-18(29-2)17(23-22(28)21(27)20(26)19(12-25)31-23)11-15(13)10-14-3-5-16(6-4-14)30-8-7-24/h3-6,9,11,19-28H,7-8,10,12H2,1-2H3/t19-,20-,21+,22-,23+/m1/s1

> <InChIKey>
XCCNASPVTKHGMF-ZQGJOIPISA-N

> <SMILES>
S1[C@H]([C@H](O)[C@@H](O)[C@H](O)[C@H]1CO)C2=CC(=C(C=C2OC)C)CC3=CC=C(OCCO)C=C3

> <Synonyms>


> <PUBCHEM_CID>


> <Molecular_formula>
C23H30O7S

> <Major_Isotope_Mass>
450.17122429999995

> <ALogP>
2.0718000000000005

> <Lipinski_Violations>
0

> <Insecticide_Likeness_Violations>
1

> <Post_Em_Herbicide_Likeness_Violations>
1

> <Metabolite_ID>
BTM00008

> <Reaction>
Hydroxylation of terminal methyl

> <Reaction_ID>
BTMR1061

> <Enzyme(s)>
CYP1A2
CYP2A6
CYP2B6
CYP2C8
CYP2C9
CYP2C19
CYP2D6
CYP2E1
CYP3A4

> <Biosystem>
HUMAN

> <Precursor_ID>
TEST0045_Luseogliflozin

> <Precursor_SMILES>
S1[C@H]([C@H](O)[C@@H](O)[C@H](O)[C@H]1CO)C2=CC(=C(C=C2OC)C)CC3=CC=C(OCC)C=C3

> <Precursor_InChI>
InChI=1S/C23H30O6S/c1-4-29-16-7-5-14(6-8-16)10-15-11-17(18(28-3)9-13(15)2)23-22(27)21(26)20(25)19(12-24)30-23/h5-9,11,19-27H,4,10,12H2,1-3H3/t19-,20-,21+,22-,23+/m1/s1

> <Precursor_InChIKey>
WHSOLWOTCHFFBK-ZQGJOIPISA-N

> <Precursor_ALogP>
2.960000

> <Precursor_Major_Isotope_Mass>
434.1763

$$$$
