BTM00001
  CDK     08072417422D

 24 27  0  0  0  0  0  0  0  0999 V2000
   -5.6543   -0.6592    0.0000 Cl  0  0  0  0  0  0  0  0  0  0  0  0
   -4.2200   -0.2200    0.0000 C   0  0  0  0  0  0  0  0  0  0  0  0
   -3.1200   -1.2400    0.0000 C   0  0  0  0  0  0  0  0  0  0  0  0
   -1.6900   -0.8000    0.0000 C   0  0  0  0  0  0  0  0  0  0  0  0
   -0.7500   -1.9700    0.0000 C   0  0  0  0  0  0  0  0  0  0  0  0
   -1.3984   -3.3226    0.0000 N   0  0  0  0  0  0  0  0  0  0  0  0
   -2.8948   -3.4377    0.0000 C   0  0  0  0  0  0  0  0  0  0  0  0
   -3.5442   -4.7908    0.0000 C   0  0  0  0  0  0  0  0  0  0  0  0
   -2.6971   -6.0288    0.0000 N   0  0  0  0  0  0  0  0  0  0  0  0
   -1.2007   -5.9137    0.0000 C   0  0  0  0  0  0  0  0  0  0  0  0
   -0.5514   -4.5606    0.0000 C   0  0  0  0  0  0  0  0  0  0  0  0
   -3.3455   -7.3814    0.0000 C   0  0  0  0  0  0  0  0  0  0  0  0
    0.7500   -1.9700    0.0000 N   0  0  0  0  0  0  0  0  0  0  0  0
    1.6900   -0.8000    0.0000 C   0  0  0  0  0  0  0  0  0  0  0  0
    1.3500    0.6600    0.0000 C   0  0  0  0  0  0  0  0  0  0  0  0
    0.0000    1.3100    0.0000 O   0  0  0  0  0  0  0  0  0  0  0  0
   -1.3500    0.6600    0.0000 C   0  0  0  0  0  0  0  0  0  0  0  0
   -2.4500    1.6800    0.0000 C   0  0  0  0  0  0  0  0  0  0  0  0
   -3.8800    1.2400    0.0000 C   0  0  0  0  0  0  0  0  0  0  0  0
    2.4500    1.6800    0.0000 C   0  0  0  0  0  0  0  0  0  0  0  0
    3.8800    1.2400    0.0000 C   0  0  0  0  0  0  0  0  0  0  0  0
    4.2200   -0.2200    0.0000 C   0  0  0  0  0  0  0  0  0  0  0  0
    3.1200   -1.2400    0.0000 C   0  0  0  0  0  0  0  0  0  0  0  0
    4.9770    2.2631    0.0000 O   0  0  0  0  0  0  0  0  0  0  0  0
  1  2  1  0  0  0  0
  2  3  2  0  0  0  0
  3  4  1  0  0  0  0
  4  5  1  0  0  0  0
  5  6  1  0  0  0  0
  6  7  1  0  0  0  0
  7  8  1  0  0  0  0
  8  9  1  0  0  0  0
  9 10  1  0  0  0  0
 10 11  1  0  0  0  0
  6 11  1  0  0  0  0
  9 12  1  0  0  0  0
  5 13  2  0  0  0  0
 13 14  1  0  0  0  0
 14 15  2  0  0  0  0
 15 16  1  0  0  0  0
 16 17  1  0  0  0  0
  4 17  2  0  0  0  0
 17 18  1  0  0  0  0
 18 19  2  0  0  0  0
  2 19  1  0  0  0  0
 15 20  1  0  0  0  0
 20 21  2  0  0  0  0
 21 22  1  0  0  0  0
 22 23  2  0  0  0  0
 14 23  1  0  0  0  0
 24 21  1  0  0  0  0
M  END
> <InChI>
InChI=1S/C18H18ClN3O2/c1-21-6-8-22(9-7-21)18-14-10-12(19)2-5-16(14)24-17-11-13(23)3-4-15(17)20-18/h2-5,10-11,23H,6-9H2,1H3

> <InChIKey>
CFHDISFPIIFJTI-UHFFFAOYSA-N

> <SMILES>
ClC1=CC=2C(N3CCN(CC3)C)=NC4=C(OC2C=C1)C=C(C=C4)O

> <Synonyms>


> <PUBCHEM_CID>


> <Molecular_formula>
C18H18ClN3O2

> <Major_Isotope_Mass>
343.108754496

> <ALogP>
3.1656

> <Lipinski_Violations>
0

> <Insecticide_Likeness_Violations>
0

> <Post_Em_Herbicide_Likeness_Violations>
0

> <Metabolite_ID>
BTM00001

> <Reaction>
Aromatic hydroxylation of fused benzene ring

> <Reaction_ID>
BTMR1030

> <Enzyme(s)>
CYP1A2
CYP2A6
CYP2B6
CYP2C8
CYP2C9
CYP2C19
CYP2D6
CYP2E1
CYP3A4

> <Biosystem>
HUMAN

> <Precursor_ID>
TEST0048_loxapine

> <Precursor_SMILES>
ClC1=CC=2C(N3CCN(CC3)C)=NC4=C(OC2C=C1)C=CC=C4

> <Precursor_InChI>
InChI=1S/C18H18ClN3O/c1-21-8-10-22(11-9-21)18-14-12-13(19)6-7-16(14)23-17-5-3-2-4-15(17)20-18/h2-7,12H,8-11H2,1H3

> <Precursor_InChIKey>
XJGVXQDUIWGIRW-UHFFFAOYSA-N

> <Precursor_ALogP>
3.433000

> <Precursor_Major_Isotope_Mass>
327.1138

$$$$
BTM00002
  CDK     08072417422D

 24 27  0  0  0  0  0  0  0  0999 V2000
   -5.6543   -0.6592    0.0000 Cl  0  0  0  0  0  0  0  0  0  0  0  0
   -4.2200   -0.2200    0.0000 C   0  0  0  0  0  0  0  0  0  0  0  0
   -3.1200   -1.2400    0.0000 C   0  0  0  0  0  0  0  0  0  0  0  0
   -1.6900   -0.8000    0.0000 C   0  0  0  0  0  0  0  0  0  0  0  0
   -0.7500   -1.9700    0.0000 C   0  0  0  0  0  0  0  0  0  0  0  0
   -1.3984   -3.3226    0.0000 N   0  0  0  0  0  0  0  0  0  0  0  0
   -2.8948   -3.4377    0.0000 C   0  0  0  0  0  0  0  0  0  0  0  0
   -3.5442   -4.7908    0.0000 C   0  0  0  0  0  0  0  0  0  0  0  0
   -2.6971   -6.0288    0.0000 N   0  0  0  0  0  0  0  0  0  0  0  0
   -1.2007   -5.9137    0.0000 C   0  0  0  0  0  0  0  0  0  0  0  0
   -0.5514   -4.5606    0.0000 C   0  0  0  0  0  0  0  0  0  0  0  0
   -3.3455   -7.3814    0.0000 C   0  0  0  0  0  0  0  0  0  0  0  0
    0.7500   -1.9700    0.0000 N   0  0  0  0  0  0  0  0  0  0  0  0
    1.6900   -0.8000    0.0000 C   0  0  0  0  0  0  0  0  0  0  0  0
    1.3500    0.6600    0.0000 C   0  0  0  0  0  0  0  0  0  0  0  0
    0.0000    1.3100    0.0000 O   0  0  0  0  0  0  0  0  0  0  0  0
   -1.3500    0.6600    0.0000 C   0  0  0  0  0  0  0  0  0  0  0  0
   -2.4500    1.6800    0.0000 C   0  0  0  0  0  0  0  0  0  0  0  0
   -3.8800    1.2400    0.0000 C   0  0  0  0  0  0  0  0  0  0  0  0
    2.4500    1.6800    0.0000 C   0  0  0  0  0  0  0  0  0  0  0  0
    3.8800    1.2400    0.0000 C   0  0  0  0  0  0  0  0  0  0  0  0
    4.2200   -0.2200    0.0000 C   0  0  0  0  0  0  0  0  0  0  0  0
    3.1200   -1.2400    0.0000 C   0  0  0  0  0  0  0  0  0  0  0  0
    5.6543   -0.6592    0.0000 O   0  0  0  0  0  0  0  0  0  0  0  0
  1  2  1  0  0  0  0
  2  3  2  0  0  0  0
  3  4  1  0  0  0  0
  4  5  1  0  0  0  0
  5  6  1  0  0  0  0
  6  7  1  0  0  0  0
  7  8  1  0  0  0  0
  8  9  1  0  0  0  0
  9 10  1  0  0  0  0
 10 11  1  0  0  0  0
  6 11  1  0  0  0  0
  9 12  1  0  0  0  0
  5 13  2  0  0  0  0
 13 14  1  0  0  0  0
 14 15  2  0  0  0  0
 15 16  1  0  0  0  0
 16 17  1  0  0  0  0
  4 17  2  0  0  0  0
 17 18  1  0  0  0  0
 18 19  2  0  0  0  0
  2 19  1  0  0  0  0
 15 20  1  0  0  0  0
 20 21  2  0  0  0  0
 21 22  1  0  0  0  0
 22 23  2  0  0  0  0
 14 23  1  0  0  0  0
 24 22  1  0  0  0  0
M  END
> <InChI>
InChI=1S/C18H18ClN3O2/c1-21-6-8-22(9-7-21)18-14-10-12(19)2-4-16(14)24-17-5-3-13(23)11-15(17)20-18/h2-5,10-11,23H,6-9H2,1H3

> <InChIKey>
VNJRIWXLPIYFGI-UHFFFAOYSA-N

> <SMILES>
ClC1=CC=2C(N3CCN(CC3)C)=NC4=C(OC2C=C1)C=CC(=C4)O

> <Synonyms>


> <PUBCHEM_CID>


> <Molecular_formula>
C18H18ClN3O2

> <Major_Isotope_Mass>
343.108754496

> <ALogP>
3.1656

> <Lipinski_Violations>
0

> <Insecticide_Likeness_Violations>
0

> <Post_Em_Herbicide_Likeness_Violations>
0

> <Metabolite_ID>
BTM00002

> <Reaction>
Aromatic hydroxylation of fused benzene ring

> <Reaction_ID>
BTMR1030

> <Enzyme(s)>
CYP1A2
CYP2A6
CYP2B6
CYP2C8
CYP2C9
CYP2C19
CYP2D6
CYP2E1
CYP3A4

> <Biosystem>
HUMAN

> <Precursor_ID>
TEST0048_loxapine

> <Precursor_SMILES>
ClC1=CC=2C(N3CCN(CC3)C)=NC4=C(OC2C=C1)C=CC=C4

> <Precursor_InChI>
InChI=1S/C18H18ClN3O/c1-21-8-10-22(11-9-21)18-14-12-13(19)6-7-16(14)23-17-5-3-2-4-15(17)20-18/h2-7,12H,8-11H2,1H3

> <Precursor_InChIKey>
XJGVXQDUIWGIRW-UHFFFAOYSA-N

> <Precursor_ALogP>
3.433000

> <Precursor_Major_Isotope_Mass>
327.1138

$$$$
BTM00003
  CDK     08072417422D

 24 27  0  0  0  0  0  0  0  0999 V2000
   -5.6543   -0.6592    0.0000 Cl  0  0  0  0  0  0  0  0  0  0  0  0
   -4.2200   -0.2200    0.0000 C   0  0  0  0  0  0  0  0  0  0  0  0
   -3.1200   -1.2400    0.0000 C   0  0  0  0  0  0  0  0  0  0  0  0
   -1.6900   -0.8000    0.0000 C   0  0  0  0  0  0  0  0  0  0  0  0
   -0.7500   -1.9700    0.0000 C   0  0  0  0  0  0  0  0  0  0  0  0
   -1.3984   -3.3226    0.0000 N   0  0  0  0  0  0  0  0  0  0  0  0
   -2.8948   -3.4377    0.0000 C   0  0  0  0  0  0  0  0  0  0  0  0
   -3.5442   -4.7908    0.0000 C   0  0  0  0  0  0  0  0  0  0  0  0
   -2.6971   -6.0288    0.0000 N   0  0  0  0  0  0  0  0  0  0  0  0
   -1.2007   -5.9137    0.0000 C   0  0  0  0  0  0  0  0  0  0  0  0
   -0.5514   -4.5606    0.0000 C   0  0  0  0  0  0  0  0  0  0  0  0
   -3.3455   -7.3814    0.0000 C   0  0  0  0  0  0  0  0  0  0  0  0
    0.7500   -1.9700    0.0000 N   0  0  0  0  0  0  0  0  0  0  0  0
    1.6900   -0.8000    0.0000 C   0  0  0  0  0  0  0  0  0  0  0  0
    1.3500    0.6600    0.0000 C   0  0  0  0  0  0  0  0  0  0  0  0
    0.0000    1.3100    0.0000 O   0  0  0  0  0  0  0  0  0  0  0  0
   -1.3500    0.6600    0.0000 C   0  0  0  0  0  0  0  0  0  0  0  0
   -2.4500    1.6800    0.0000 C   0  0  0  0  0  0  0  0  0  0  0  0
   -3.8800    1.2400    0.0000 C   0  0  0  0  0  0  0  0  0  0  0  0
    2.4500    1.6800    0.0000 C   0  0  0  0  0  0  0  0  0  0  0  0
    3.8800    1.2400    0.0000 C   0  0  0  0  0  0  0  0  0  0  0  0
    4.2200   -0.2200    0.0000 C   0  0  0  0  0  0  0  0  0  0  0  0
    3.1200   -1.2400    0.0000 C   0  0  0  0  0  0  0  0  0  0  0  0
   -4.9770    2.2631    0.0000 O   0  0  0  0  0  0  0  0  0  0  0  0
  1  2  1  0  0  0  0
  2  3  2  0  0  0  0
  3  4  1  0  0  0  0
  4  5  1  0  0  0  0
  5  6  1  0  0  0  0
  6  7  1  0  0  0  0
  7  8  1  0  0  0  0
  8  9  1  0  0  0  0
  9 10  1  0  0  0  0
 10 11  1  0  0  0  0
  6 11  1  0  0  0  0
  9 12  1  0  0  0  0
  5 13  2  0  0  0  0
 13 14  1  0  0  0  0
 14 15  2  0  0  0  0
 15 16  1  0  0  0  0
 16 17  1  0  0  0  0
  4 17  2  0  0  0  0
 17 18  1  0  0  0  0
 18 19  2  0  0  0  0
  2 19  1  0  0  0  0
 15 20  1  0  0  0  0
 20 21  2  0  0  0  0
 21 22  1  0  0  0  0
 22 23  2  0  0  0  0
 14 23  1  0  0  0  0
 24 19  1  0  0  0  0
M  END
> <InChI>
InChI=1S/C18H18ClN3O2/c1-21-6-8-22(9-7-21)18-12-10-13(19)15(23)11-17(12)24-16-5-3-2-4-14(16)20-18/h2-5,10-11,23H,6-9H2,1H3

> <InChIKey>
AYDPKSRZVAQVQM-UHFFFAOYSA-N

> <SMILES>
ClC1=CC=2C(N3CCN(CC3)C)=NC4=C(OC2C=C1O)C=CC=C4

> <Synonyms>


> <PUBCHEM_CID>


> <Molecular_formula>
C18H18ClN3O2

> <Major_Isotope_Mass>
343.108754496

> <ALogP>
3.1656

> <Lipinski_Violations>
0

> <Insecticide_Likeness_Violations>
0

> <Post_Em_Herbicide_Likeness_Violations>
0

> <Metabolite_ID>
BTM00003

> <Reaction>
Aromatic hydroxylation of fused benzene ring

> <Reaction_ID>
BTMR1030

> <Enzyme(s)>
CYP1A2
CYP2A6
CYP2B6
CYP2C8
CYP2C9
CYP2C19
CYP2D6
CYP2E1
CYP3A4

> <Biosystem>
HUMAN

> <Precursor_ID>
TEST0048_loxapine

> <Precursor_SMILES>
ClC1=CC=2C(N3CCN(CC3)C)=NC4=C(OC2C=C1)C=CC=C4

> <Precursor_InChI>
InChI=1S/C18H18ClN3O/c1-21-8-10-22(11-9-21)18-14-12-13(19)6-7-16(14)23-17-5-3-2-4-15(17)20-18/h2-7,12H,8-11H2,1H3

> <Precursor_InChIKey>
XJGVXQDUIWGIRW-UHFFFAOYSA-N

> <Precursor_ALogP>
3.433000

> <Precursor_Major_Isotope_Mass>
327.1138

$$$$
BTM00004
  CDK     08072417422D

 24 27  0  0  0  0  0  0  0  0999 V2000
   -5.6543   -0.6592    0.0000 Cl  0  0  0  0  0  0  0  0  0  0  0  0
   -4.2200   -0.2200    0.0000 C   0  0  0  0  0  0  0  0  0  0  0  0
   -3.1200   -1.2400    0.0000 C   0  0  0  0  0  0  0  0  0  0  0  0
   -1.6900   -0.8000    0.0000 C   0  0  0  0  0  0  0  0  0  0  0  0
   -0.7500   -1.9700    0.0000 C   0  0  0  0  0  0  0  0  0  0  0  0
   -1.3984   -3.3226    0.0000 N   0  0  0  0  0  0  0  0  0  0  0  0
   -0.5503   -4.5609    0.0000 C   0  0  0  0  0  0  0  0  0  0  0  0
   -1.1987   -5.9135    0.0000 C   0  0  0  0  0  0  0  0  0  0  0  0
   -2.6951   -6.0279    0.0000 N   0  3  0  0  0  0  0  0  0  0  0  0
   -3.5432   -4.7896    0.0000 C   0  0  0  0  0  0  0  0  0  0  0  0
   -2.8948   -3.4370    0.0000 C   0  0  0  0  0  0  0  0  0  0  0  0
   -4.0612   -6.6474    0.0000 C   0  0  0  0  0  0  0  0  0  0  0  0
    0.7500   -1.9700    0.0000 N   0  0  0  0  0  0  0  0  0  0  0  0
    1.6900   -0.8000    0.0000 C   0  0  0  0  0  0  0  0  0  0  0  0
    1.3500    0.6600    0.0000 C   0  0  0  0  0  0  0  0  0  0  0  0
    0.0000    1.3100    0.0000 O   0  0  0  0  0  0  0  0  0  0  0  0
   -1.3500    0.6600    0.0000 C   0  0  0  0  0  0  0  0  0  0  0  0
   -2.4500    1.6800    0.0000 C   0  0  0  0  0  0  0  0  0  0  0  0
   -3.8800    1.2400    0.0000 C   0  0  0  0  0  0  0  0  0  0  0  0
    2.4500    1.6800    0.0000 C   0  0  0  0  0  0  0  0  0  0  0  0
    3.8800    1.2400    0.0000 C   0  0  0  0  0  0  0  0  0  0  0  0
    4.2200   -0.2200    0.0000 C   0  0  0  0  0  0  0  0  0  0  0  0
    3.1200   -1.2400    0.0000 C   0  0  0  0  0  0  0  0  0  0  0  0
   -2.3225   -7.4809    0.0000 O   0  5  0  0  0  0  0  0  0  0  0  0
  1  2  1  0  0  0  0
  2  3  2  0  0  0  0
  3  4  1  0  0  0  0
  4  5  1  0  0  0  0
  5  6  1  0  0  0  0
  6  7  1  0  0  0  0
  7  8  1  0  0  0  0
  8  9  1  0  0  0  0
  9 10  1  0  0  0  0
 10 11  1  0  0  0  0
  6 11  1  0  0  0  0
  9 12  1  0  0  0  0
  5 13  2  0  0  0  0
 13 14  1  0  0  0  0
 14 15  2  0  0  0  0
 15 16  1  0  0  0  0
 16 17  1  0  0  0  0
  4 17  2  0  0  0  0
 17 18  1  0  0  0  0
 18 19  2  0  0  0  0
  2 19  1  0  0  0  0
 15 20  1  0  0  0  0
 20 21  2  0  0  0  0
 21 22  1  0  0  0  0
 22 23  2  0  0  0  0
 14 23  1  0  0  0  0
  9 24  1  0  0  0  0
M  CHG  1   9   1
M  CHG  1  24  -1
M  END
> <InChI>
InChI=1S/C18H18ClN3O2/c1-22(23)10-8-21(9-11-22)18-14-12-13(19)6-7-16(14)24-17-5-3-2-4-15(17)20-18/h2-7,12H,8-11H2,1H3

> <InChIKey>
QUSWANHLDLADDR-UHFFFAOYSA-N

> <SMILES>
ClC1=CC=2C(N3CC[N+](CC3)(C)[O-])=NC4=C(OC2C=C1)C=CC=C4

> <Synonyms>


> <PUBCHEM_CID>


> <Molecular_formula>
C18H18ClN3O2

> <Major_Isotope_Mass>
343.108754496

> <ALogP>
3.0279000000000025

> <Lipinski_Violations>
0

> <Insecticide_Likeness_Violations>
0

> <Post_Em_Herbicide_Likeness_Violations>
0

> <Metabolite_ID>
BTM00004

> <Reaction>
N-Oxidation of alicyclic tertiary amine

> <Reaction_ID>
BTMR1099

> <Enzyme(s)>
CYP1A2
CYP2C8
CYP2C19
CYP2D6
CYP3A4

> <Biosystem>
HUMAN

> <Precursor_ID>
TEST0048_loxapine

> <Precursor_SMILES>
ClC1=CC=2C(N3CCN(CC3)C)=NC4=C(OC2C=C1)C=CC=C4

> <Precursor_InChI>
InChI=1S/C18H18ClN3O/c1-21-8-10-22(11-9-21)18-14-12-13(19)6-7-16(14)23-17-5-3-2-4-15(17)20-18/h2-7,12H,8-11H2,1H3

> <Precursor_InChIKey>
XJGVXQDUIWGIRW-UHFFFAOYSA-N

> <Precursor_ALogP>
3.433000

> <Precursor_Major_Isotope_Mass>
327.1138

$$$$
BTM00005
  CDK     08072417422D

 22 25  0  0  0  0  0  0  0  0999 V2000
   -5.6543   -0.6592    0.0000 Cl  0  0  0  0  0  0  0  0  0  0  0  0
   -4.2200   -0.2200    0.0000 C   0  0  0  0  0  0  0  0  0  0  0  0
   -3.1200   -1.2400    0.0000 C   0  0  0  0  0  0  0  0  0  0  0  0
   -1.6900   -0.8000    0.0000 C   0  0  0  0  0  0  0  0  0  0  0  0
   -0.7500   -1.9700    0.0000 C   0  0  0  0  0  0  0  0  0  0  0  0
   -1.3984   -3.3226    0.0000 N   0  0  0  0  0  0  0  0  0  0  0  0
   -0.5503   -4.5609    0.0000 C   0  0  0  0  0  0  0  0  0  0  0  0
   -1.1987   -5.9135    0.0000 C   0  0  0  0  0  0  0  0  0  0  0  0
   -2.6951   -6.0279    0.0000 N   0  0  0  0  0  0  0  0  0  0  0  0
   -3.5432   -4.7896    0.0000 C   0  0  0  0  0  0  0  0  0  0  0  0
   -2.8948   -3.4370    0.0000 C   0  0  0  0  0  0  0  0  0  0  0  0
    0.7500   -1.9700    0.0000 N   0  0  0  0  0  0  0  0  0  0  0  0
    1.6900   -0.8000    0.0000 C   0  0  0  0  0  0  0  0  0  0  0  0
    1.3500    0.6600    0.0000 C   0  0  0  0  0  0  0  0  0  0  0  0
    0.0000    1.3100    0.0000 O   0  0  0  0  0  0  0  0  0  0  0  0
   -1.3500    0.6600    0.0000 C   0  0  0  0  0  0  0  0  0  0  0  0
   -2.4500    1.6800    0.0000 C   0  0  0  0  0  0  0  0  0  0  0  0
   -3.8800    1.2400    0.0000 C   0  0  0  0  0  0  0  0  0  0  0  0
    2.4500    1.6800    0.0000 C   0  0  0  0  0  0  0  0  0  0  0  0
    3.8800    1.2400    0.0000 C   0  0  0  0  0  0  0  0  0  0  0  0
    4.2200   -0.2200    0.0000 C   0  0  0  0  0  0  0  0  0  0  0  0
    3.1200   -1.2400    0.0000 C   0  0  0  0  0  0  0  0  0  0  0  0
  1  2  1  0  0  0  0
  2  3  2  0  0  0  0
  3  4  1  0  0  0  0
  4  5  1  0  0  0  0
  5  6  1  0  0  0  0
  6  7  1  0  0  0  0
  7  8  1  0  0  0  0
  8  9  1  0  0  0  0
  9 10  1  0  0  0  0
 10 11  1  0  0  0  0
  6 11  1  0  0  0  0
  5 12  2  0  0  0  0
 12 13  1  0  0  0  0
 13 14  2  0  0  0  0
 14 15  1  0  0  0  0
 15 16  1  0  0  0  0
  4 16  2  0  0  0  0
 16 17  1  0  0  0  0
 17 18  2  0  0  0  0
  2 18  1  0  0  0  0
 14 19  1  0  0  0  0
 19 20  2  0  0  0  0
 20 21  1  0  0  0  0
 21 22  2  0  0  0  0
 13 22  1  0  0  0  0
M  END
> <InChI>
InChI=1S/C17H16ClN3O/c18-12-5-6-15-13(11-12)17(21-9-7-19-8-10-21)20-14-3-1-2-4-16(14)22-15/h1-6,11,19H,7-10H2

> <InChIKey>
QWGDMFLQWFTERH-UHFFFAOYSA-N

> <SMILES>
ClC1=CC=2C(N3CCNCC3)=NC4=C(OC2C=C1)C=CC=C4

> <Synonyms>


> <PUBCHEM_CID>


> <Molecular_formula>
C17H16ClN3O

> <Major_Isotope_Mass>
313.09818981200004

> <ALogP>
2.8971

> <Lipinski_Violations>
0

> <Insecticide_Likeness_Violations>
0

> <Post_Em_Herbicide_Likeness_Violations>
0

> <Metabolite_ID>
BTM00005

> <Reaction>
N-Dealkylation of alicyclic tertiary amine

> <Reaction_ID>
BTMR1144

> <Enzyme(s)>
CYP1A2
CYP2A6
CYP2B6
CYP2C8
CYP2C9
CYP2C19
CYP2D6
CYP3A4

> <Biosystem>
HUMAN

> <Precursor_ID>
TEST0048_loxapine

> <Precursor_SMILES>
ClC1=CC=2C(N3CCN(CC3)C)=NC4=C(OC2C=C1)C=CC=C4

> <Precursor_InChI>
InChI=1S/C18H18ClN3O/c1-21-8-10-22(11-9-21)18-14-12-13(19)6-7-16(14)23-17-5-3-2-4-15(17)20-18/h2-7,12H,8-11H2,1H3

> <Precursor_InChIKey>
XJGVXQDUIWGIRW-UHFFFAOYSA-N

> <Precursor_ALogP>
3.433000

> <Precursor_Major_Isotope_Mass>
327.1138

$$$$
BTM00006
  CDK     08072417422D

 24 27  0  0  0  0  0  0  0  0999 V2000
   -5.6543   -0.6592    0.0000 Cl  0  0  0  0  0  0  0  0  0  0  0  0
   -4.2200   -0.2200    0.0000 C   0  0  0  0  0  0  0  0  0  0  0  0
   -3.1200   -1.2400    0.0000 C   0  0  0  0  0  0  0  0  0  0  0  0
   -1.6900   -0.8000    0.0000 C   0  0  0  0  0  0  0  0  0  0  0  0
   -0.7500   -1.9700    0.0000 C   0  0  0  0  0  0  0  0  0  0  0  0
   -1.3984   -3.3226    0.0000 N   0  0  0  0  0  0  0  0  0  0  0  0
   -0.5503   -4.5609    0.0000 C   0  0  0  0  0  0  0  0  0  0  0  0
   -1.1987   -5.9135    0.0000 C   0  0  0  0  0  0  0  0  0  0  0  0
   -2.6951   -6.0279    0.0000 N   0  0  0  0  0  0  0  0  0  0  0  0
   -3.5432   -4.7896    0.0000 C   0  0  0  0  0  0  0  0  0  0  0  0
   -2.8948   -3.4370    0.0000 C   0  0  0  0  0  0  0  0  0  0  0  0
   -3.3435   -7.3805    0.0000 C   0  0  0  0  0  0  0  0  0  0  0  0
    0.7500   -1.9700    0.0000 N   0  0  0  0  0  0  0  0  0  0  0  0
    1.6900   -0.8000    0.0000 C   0  0  0  0  0  0  0  0  0  0  0  0
    1.3500    0.6600    0.0000 C   0  0  0  0  0  0  0  0  0  0  0  0
    0.0000    1.3100    0.0000 O   0  0  0  0  0  0  0  0  0  0  0  0
   -1.3500    0.6600    0.0000 C   0  0  0  0  0  0  0  0  0  0  0  0
   -2.4500    1.6800    0.0000 C   0  0  0  0  0  0  0  0  0  0  0  0
   -3.8800    1.2400    0.0000 C   0  0  0  0  0  0  0  0  0  0  0  0
    2.4500    1.6800    0.0000 C   0  0  0  0  0  0  0  0  0  0  0  0
    3.8800    1.2400    0.0000 C   0  0  0  0  0  0  0  0  0  0  0  0
    4.2200   -0.2200    0.0000 C   0  0  0  0  0  0  0  0  0  0  0  0
    3.1200   -1.2400    0.0000 C   0  0  0  0  0  0  0  0  0  0  0  0
    0.9453   -4.4458    0.0000 O   0  0  0  0  0  0  0  0  0  0  0  0
  1  2  1  0  0  0  0
  2  3  2  0  0  0  0
  3  4  1  0  0  0  0
  4  5  1  0  0  0  0
  5  6  1  0  0  0  0
  6  7  1  0  0  0  0
  7  8  1  0  0  0  0
  8  9  1  0  0  0  0
  9 10  1  0  0  0  0
 10 11  1  0  0  0  0
  6 11  1  0  0  0  0
  9 12  1  0  0  0  0
  5 13  2  0  0  0  0
 13 14  1  0  0  0  0
 14 15  2  0  0  0  0
 15 16  1  0  0  0  0
 16 17  1  0  0  0  0
  4 17  2  0  0  0  0
 17 18  1  0  0  0  0
 18 19  2  0  0  0  0
  2 19  1  0  0  0  0
 15 20  1  0  0  0  0
 20 21  2  0  0  0  0
 21 22  1  0  0  0  0
 22 23  2  0  0  0  0
 14 23  1  0  0  0  0
 24  7  1  0  0  0  0
M  END
> <InChI>
InChI=1S/C18H18ClN3O2/c1-21-8-9-22(17(23)11-21)18-13-10-12(19)6-7-15(13)24-16-5-3-2-4-14(16)20-18/h2-7,10,17,23H,8-9,11H2,1H3

> <InChIKey>
MQTULWKVYMPSHY-UHFFFAOYSA-N

> <SMILES>
ClC1=CC=2C(N3C(CN(CC3)C)O)=NC4=C(OC2C=C1)C=CC=C4

> <Synonyms>


> <PUBCHEM_CID>


> <Molecular_formula>
C18H18ClN3O2

> <Major_Isotope_Mass>
343.108754496

> <ALogP>
3.0933

> <Lipinski_Violations>
0

> <Insecticide_Likeness_Violations>
0

> <Post_Em_Herbicide_Likeness_Violations>
0

> <Metabolite_ID>
BTM00006

> <Reaction>
Hydroxylation of heteroalicyclic secondary carbon

> <Reaction_ID>
BTMR1070

> <Enzyme(s)>
CYP1A2
CYP2A6
CYP2C9
CYP2D6
CYP3A4

> <Biosystem>
HUMAN

> <Precursor_ID>
TEST0048_loxapine

> <Precursor_SMILES>
ClC1=CC=2C(N3CCN(CC3)C)=NC4=C(OC2C=C1)C=CC=C4

> <Precursor_InChI>
InChI=1S/C18H18ClN3O/c1-21-8-10-22(11-9-21)18-14-12-13(19)6-7-16(14)23-17-5-3-2-4-15(17)20-18/h2-7,12H,8-11H2,1H3

> <Precursor_InChIKey>
XJGVXQDUIWGIRW-UHFFFAOYSA-N

> <Precursor_ALogP>
3.433000

> <Precursor_Major_Isotope_Mass>
327.1138

$$$$
BTM00007
  CDK     08072417422D

 24 27  0  0  0  0  0  0  0  0999 V2000
   -5.6543   -0.6592    0.0000 Cl  0  0  0  0  0  0  0  0  0  0  0  0
   -4.2200   -0.2200    0.0000 C   0  0  0  0  0  0  0  0  0  0  0  0
   -3.1200   -1.2400    0.0000 C   0  0  0  0  0  0  0  0  0  0  0  0
   -1.6900   -0.8000    0.0000 C   0  0  0  0  0  0  0  0  0  0  0  0
   -0.7500   -1.9700    0.0000 C   0  0  0  0  0  0  0  0  0  0  0  0
   -1.3984   -3.3226    0.0000 N   0  0  0  0  0  0  0  0  0  0  0  0
   -0.5503   -4.5609    0.0000 C   0  0  0  0  0  0  0  0  0  0  0  0
   -1.1987   -5.9135    0.0000 C   0  0  0  0  0  0  0  0  0  0  0  0
   -2.6951   -6.0279    0.0000 N   0  0  0  0  0  0  0  0  0  0  0  0
   -3.5432   -4.7896    0.0000 C   0  0  0  0  0  0  0  0  0  0  0  0
   -2.8948   -3.4370    0.0000 C   0  0  0  0  0  0  0  0  0  0  0  0
   -3.3435   -7.3805    0.0000 C   0  0  0  0  0  0  0  0  0  0  0  0
    0.7500   -1.9700    0.0000 N   0  0  0  0  0  0  0  0  0  0  0  0
    1.6900   -0.8000    0.0000 C   0  0  0  0  0  0  0  0  0  0  0  0
    1.3500    0.6600    0.0000 C   0  0  0  0  0  0  0  0  0  0  0  0
    0.0000    1.3100    0.0000 O   0  0  0  0  0  0  0  0  0  0  0  0
   -1.3500    0.6600    0.0000 C   0  0  0  0  0  0  0  0  0  0  0  0
   -2.4500    1.6800    0.0000 C   0  0  0  0  0  0  0  0  0  0  0  0
   -3.8800    1.2400    0.0000 C   0  0  0  0  0  0  0  0  0  0  0  0
    2.4500    1.6800    0.0000 C   0  0  0  0  0  0  0  0  0  0  0  0
    3.8800    1.2400    0.0000 C   0  0  0  0  0  0  0  0  0  0  0  0
    4.2200   -0.2200    0.0000 C   0  0  0  0  0  0  0  0  0  0  0  0
    3.1200   -1.2400    0.0000 C   0  0  0  0  0  0  0  0  0  0  0  0
   -0.3516   -7.1515    0.0000 O   0  0  0  0  0  0  0  0  0  0  0  0
  1  2  1  0  0  0  0
  2  3  2  0  0  0  0
  3  4  1  0  0  0  0
  4  5  1  0  0  0  0
  5  6  1  0  0  0  0
  6  7  1  0  0  0  0
  7  8  1  0  0  0  0
  8  9  1  0  0  0  0
  9 10  1  0  0  0  0
 10 11  1  0  0  0  0
  6 11  1  0  0  0  0
  9 12  1  0  0  0  0
  5 13  2  0  0  0  0
 13 14  1  0  0  0  0
 14 15  2  0  0  0  0
 15 16  1  0  0  0  0
 16 17  1  0  0  0  0
  4 17  2  0  0  0  0
 17 18  1  0  0  0  0
 18 19  2  0  0  0  0
  2 19  1  0  0  0  0
 15 20  1  0  0  0  0
 20 21  2  0  0  0  0
 21 22  1  0  0  0  0
 22 23  2  0  0  0  0
 14 23  1  0  0  0  0
 24  8  1  0  0  0  0
M  END
> <InChI>
InChI=1S/C18H18ClN3O2/c1-21-8-9-22(11-17(21)23)18-13-10-12(19)6-7-15(13)24-16-5-3-2-4-14(16)20-18/h2-7,10,17,23H,8-9,11H2,1H3

> <InChIKey>
OFGSFGQZCODARC-UHFFFAOYSA-N

> <SMILES>
ClC1=CC=2C(N3CC(N(CC3)C)O)=NC4=C(OC2C=C1)C=CC=C4

> <Synonyms>


> <PUBCHEM_CID>


> <Molecular_formula>
C18H18ClN3O2

> <Major_Isotope_Mass>
343.108754496

> <ALogP>
3.0933

> <Lipinski_Violations>
0

> <Insecticide_Likeness_Violations>
0

> <Post_Em_Herbicide_Likeness_Violations>
0

> <Metabolite_ID>
BTM00007

> <Reaction>
Hydroxylation of heteroalicyclic secondary carbon

> <Reaction_ID>
BTMR1070

> <Enzyme(s)>
CYP1A2
CYP2A6
CYP2C9
CYP2D6
CYP3A4

> <Biosystem>
HUMAN

> <Precursor_ID>
TEST0048_loxapine

> <Precursor_SMILES>
ClC1=CC=2C(N3CCN(CC3)C)=NC4=C(OC2C=C1)C=CC=C4

> <Precursor_InChI>
InChI=1S/C18H18ClN3O/c1-21-8-10-22(11-9-21)18-14-12-13(19)6-7-16(14)23-17-5-3-2-4-15(17)20-18/h2-7,12H,8-11H2,1H3

> <Precursor_InChIKey>
XJGVXQDUIWGIRW-UHFFFAOYSA-N

> <Precursor_ALogP>
3.433000

> <Precursor_Major_Isotope_Mass>
327.1138

$$$$
BTM00008
  CDK     08072417422D

 24 27  0  0  0  0  0  0  0  0999 V2000
   -5.6543   -0.6592    0.0000 Cl  0  0  0  0  0  0  0  0  0  0  0  0
   -4.2200   -0.2200    0.0000 C   0  0  0  0  0  0  0  0  0  0  0  0
   -3.1200   -1.2400    0.0000 C   0  0  0  0  0  0  0  0  0  0  0  0
   -1.6900   -0.8000    0.0000 C   0  0  0  0  0  0  0  0  0  0  0  0
   -0.7500   -1.9700    0.0000 C   0  0  0  0  0  0  0  0  0  0  0  0
   -1.3984   -3.3226    0.0000 N   0  0  0  0  0  0  0  0  0  0  0  0
   -2.8948   -3.4377    0.0000 C   0  0  0  0  0  0  0  0  0  0  0  0
   -3.5442   -4.7908    0.0000 C   0  0  0  0  0  0  0  0  0  0  0  0
   -2.6971   -6.0288    0.0000 N   0  0  0  0  0  0  0  0  0  0  0  0
   -1.2007   -5.9137    0.0000 C   0  0  0  0  0  0  0  0  0  0  0  0
   -0.5514   -4.5606    0.0000 C   0  0  0  0  0  0  0  0  0  0  0  0
   -3.3455   -7.3814    0.0000 C   0  0  0  0  0  0  0  0  0  0  0  0
    0.7500   -1.9700    0.0000 N   0  0  0  0  0  0  0  0  0  0  0  0
    1.6900   -0.8000    0.0000 C   0  0  0  0  0  0  0  0  0  0  0  0
    1.3500    0.6600    0.0000 C   0  0  0  0  0  0  0  0  0  0  0  0
    0.0000    1.3100    0.0000 O   0  0  0  0  0  0  0  0  0  0  0  0
   -1.3500    0.6600    0.0000 C   0  0  0  0  0  0  0  0  0  0  0  0
   -2.4500    1.6800    0.0000 C   0  0  0  0  0  0  0  0  0  0  0  0
   -3.8800    1.2400    0.0000 C   0  0  0  0  0  0  0  0  0  0  0  0
    2.4500    1.6800    0.0000 C   0  0  0  0  0  0  0  0  0  0  0  0
    3.8800    1.2400    0.0000 C   0  0  0  0  0  0  0  0  0  0  0  0
    4.2200   -0.2200    0.0000 C   0  0  0  0  0  0  0  0  0  0  0  0
    3.1200   -1.2400    0.0000 C   0  0  0  0  0  0  0  0  0  0  0  0
   -2.1159    3.1423    0.0000 O   0  0  0  0  0  0  0  0  0  0  0  0
  1  2  1  0  0  0  0
  2  3  2  0  0  0  0
  3  4  1  0  0  0  0
  4  5  1  0  0  0  0
  5  6  1  0  0  0  0
  6  7  1  0  0  0  0
  7  8  1  0  0  0  0
  8  9  1  0  0  0  0
  9 10  1  0  0  0  0
 10 11  1  0  0  0  0
  6 11  1  0  0  0  0
  9 12  1  0  0  0  0
  5 13  2  0  0  0  0
 13 14  1  0  0  0  0
 14 15  2  0  0  0  0
 15 16  1  0  0  0  0
 16 17  1  0  0  0  0
  4 17  2  0  0  0  0
 17 18  1  0  0  0  0
 18 19  2  0  0  0  0
  2 19  1  0  0  0  0
 15 20  1  0  0  0  0
 20 21  2  0  0  0  0
 21 22  1  0  0  0  0
 22 23  2  0  0  0  0
 14 23  1  0  0  0  0
 18 24  1  0  0  0  0
M  END
> <InChI>
InChI=1S/C18H18ClN3O2/c1-21-6-8-22(9-7-21)18-13-10-12(19)11-15(23)17(13)24-16-5-3-2-4-14(16)20-18/h2-5,10-11,23H,6-9H2,1H3

> <InChIKey>
TUEDIHMQTCSYKV-UHFFFAOYSA-N

> <SMILES>
ClC1=CC=2C(N3CCN(CC3)C)=NC4=C(OC2C(=C1)O)C=CC=C4

> <Synonyms>


> <PUBCHEM_CID>


> <Molecular_formula>
C18H18ClN3O2

> <Major_Isotope_Mass>
343.10875449599996

> <ALogP>
3.1656

> <Lipinski_Violations>
0

> <Insecticide_Likeness_Violations>
0

> <Post_Em_Herbicide_Likeness_Violations>
0

> <Metabolite_ID>
BTM00008

> <Reaction>
Aromatic hydroxylation of fused benzene ring

> <Reaction_ID>
BTMR1031

> <Enzyme(s)>
CYP1A2
CYP2B6
CYP2C8
CYP2C9
CYP2C19
CYP2D6
CYP3A4

> <Biosystem>
HUMAN

> <Precursor_ID>
TEST0048_loxapine

> <Precursor_SMILES>
ClC1=CC=2C(N3CCN(CC3)C)=NC4=C(OC2C=C1)C=CC=C4

> <Precursor_InChI>
InChI=1S/C18H18ClN3O/c1-21-8-10-22(11-9-21)18-14-12-13(19)6-7-16(14)23-17-5-3-2-4-15(17)20-18/h2-7,12H,8-11H2,1H3

> <Precursor_InChIKey>
XJGVXQDUIWGIRW-UHFFFAOYSA-N

> <Precursor_ALogP>
3.433000

> <Precursor_Major_Isotope_Mass>
327.1138

$$$$
BTM00009
  CDK     08072417422D

 24 27  0  0  0  0  0  0  0  0999 V2000
   -5.6543   -0.6592    0.0000 Cl  0  0  0  0  0  0  0  0  0  0  0  0
   -4.2200   -0.2200    0.0000 C   0  0  0  0  0  0  0  0  0  0  0  0
   -3.1200   -1.2400    0.0000 C   0  0  0  0  0  0  0  0  0  0  0  0
   -1.6900   -0.8000    0.0000 C   0  0  0  0  0  0  0  0  0  0  0  0
   -0.7500   -1.9700    0.0000 C   0  0  0  0  0  0  0  0  0  0  0  0
   -1.3984   -3.3226    0.0000 N   0  0  0  0  0  0  0  0  0  0  0  0
   -2.8948   -3.4377    0.0000 C   0  0  0  0  0  0  0  0  0  0  0  0
   -3.5442   -4.7908    0.0000 C   0  0  0  0  0  0  0  0  0  0  0  0
   -2.6971   -6.0288    0.0000 N   0  0  0  0  0  0  0  0  0  0  0  0
   -1.2007   -5.9137    0.0000 C   0  0  0  0  0  0  0  0  0  0  0  0
   -0.5514   -4.5606    0.0000 C   0  0  0  0  0  0  0  0  0  0  0  0
   -3.3455   -7.3814    0.0000 C   0  0  0  0  0  0  0  0  0  0  0  0
    0.7500   -1.9700    0.0000 N   0  0  0  0  0  0  0  0  0  0  0  0
    1.6900   -0.8000    0.0000 C   0  0  0  0  0  0  0  0  0  0  0  0
    1.3500    0.6600    0.0000 C   0  0  0  0  0  0  0  0  0  0  0  0
    0.0000    1.3100    0.0000 O   0  0  0  0  0  0  0  0  0  0  0  0
   -1.3500    0.6600    0.0000 C   0  0  0  0  0  0  0  0  0  0  0  0
   -2.4500    1.6800    0.0000 C   0  0  0  0  0  0  0  0  0  0  0  0
   -3.8800    1.2400    0.0000 C   0  0  0  0  0  0  0  0  0  0  0  0
    2.4500    1.6800    0.0000 C   0  0  0  0  0  0  0  0  0  0  0  0
    3.8800    1.2400    0.0000 C   0  0  0  0  0  0  0  0  0  0  0  0
    4.2200   -0.2200    0.0000 C   0  0  0  0  0  0  0  0  0  0  0  0
    3.1200   -1.2400    0.0000 C   0  0  0  0  0  0  0  0  0  0  0  0
   -3.4541   -2.7023    0.0000 O   0  0  0  0  0  0  0  0  0  0  0  0
  1  2  1  0  0  0  0
  2  3  2  0  0  0  0
  3  4  1  0  0  0  0
  4  5  1  0  0  0  0
  5  6  1  0  0  0  0
  6  7  1  0  0  0  0
  7  8  1  0  0  0  0
  8  9  1  0  0  0  0
  9 10  1  0  0  0  0
 10 11  1  0  0  0  0
  6 11  1  0  0  0  0
  9 12  1  0  0  0  0
  5 13  2  0  0  0  0
 13 14  1  0  0  0  0
 14 15  2  0  0  0  0
 15 16  1  0  0  0  0
 16 17  1  0  0  0  0
  4 17  2  0  0  0  0
 17 18  1  0  0  0  0
 18 19  2  0  0  0  0
  2 19  1  0  0  0  0
 15 20  1  0  0  0  0
 20 21  2  0  0  0  0
 21 22  1  0  0  0  0
 22 23  2  0  0  0  0
 14 23  1  0  0  0  0
  3 24  1  0  0  0  0
M  END
> <InChI>
InChI=1S/C18H18ClN3O2/c1-21-8-10-22(11-9-21)18-16-15(7-6-12(19)17(16)23)24-14-5-3-2-4-13(14)20-18/h2-7,23H,8-11H2,1H3

> <InChIKey>
HNIAASBBJVTTGX-UHFFFAOYSA-N

> <SMILES>
ClC1=C(C=2C(N3CCN(CC3)C)=NC4=C(OC2C=C1)C=CC=C4)O

> <Synonyms>


> <PUBCHEM_CID>


> <Molecular_formula>
C18H18ClN3O2

> <Major_Isotope_Mass>
343.108754496

> <ALogP>
3.1656

> <Lipinski_Violations>
0

> <Insecticide_Likeness_Violations>
0

> <Post_Em_Herbicide_Likeness_Violations>
0

> <Metabolite_ID>
BTM00009

> <Reaction>
Aromatic hydroxylation of fused benzene ring

> <Reaction_ID>
BTMR1032

> <Enzyme(s)>
CYP1A2
CYP2B6
CYP2C8
CYP2C9
CYP2C19
CYP2D6
CYP3A4

> <Biosystem>
HUMAN

> <Precursor_ID>
TEST0048_loxapine

> <Precursor_SMILES>
ClC1=CC=2C(N3CCN(CC3)C)=NC4=C(OC2C=C1)C=CC=C4

> <Precursor_InChI>
InChI=1S/C18H18ClN3O/c1-21-8-10-22(11-9-21)18-14-12-13(19)6-7-16(14)23-17-5-3-2-4-15(17)20-18/h2-7,12H,8-11H2,1H3

> <Precursor_InChIKey>
XJGVXQDUIWGIRW-UHFFFAOYSA-N

> <Precursor_ALogP>
3.433000

> <Precursor_Major_Isotope_Mass>
327.1138

$$$$
