BTM00001
  CDK     08072417472D

 24 27  0  0  1  0  0  0  0  0999 V2000
    5.1440    2.7103    0.0000 O   0  0  0  0  0  0  0  0  0  0  0  0
    3.8444    1.9611    0.0000 C   0  0  1  0  0  0  0  0  0  0  0  0
    3.0424    3.7714    0.0000 C   0  0  0  0  0  0  0  0  0  0  0  0
    2.4347    5.1428    0.0000 C   0  0  0  0  0  0  0  0  0  0  0  0
    4.7244    0.7511    0.0000 C   0  0  0  0  0  0  0  0  0  0  0  0
    3.8444   -0.4589    0.0000 C   0  0  0  0  0  0  0  0  0  0  0  0
    2.4144    0.0011    0.0000 C   0  0  1  0  0  0  0  0  0  0  0  0
    1.1144   -0.7489    0.0000 C   0  0  2  0  0  0  0  0  0  0  0  0
    1.1144   -2.2489    0.0000 C   0  0  0  0  0  0  0  0  0  0  0  0
   -0.1856   -2.9989    0.0000 C   0  0  0  0  0  0  0  0  0  0  0  0
   -1.4856   -2.2489    0.0000 C   0  0  0  0  0  0  0  0  0  0  0  0
   -1.4856   -0.7489    0.0000 C   0  0  0  0  0  0  0  0  0  0  0  0
   -2.7856    0.0011    0.0000 C   0  0  0  0  0  0  0  0  0  0  0  0
   -4.0856   -0.7489    0.0000 C   0  0  0  0  0  0  0  0  0  0  0  0
   -4.0856   -2.2489    0.0000 C   0  0  0  0  0  0  0  0  0  0  0  0
   -5.3845   -2.9991    0.0000 O   0  0  0  0  0  0  0  0  0  0  0  0
   -6.6836   -2.2493    0.0000 C   0  0  0  0  0  0  0  0  0  0  0  0
   -2.7856   -2.9989    0.0000 C   0  0  0  0  0  0  0  0  0  0  0  0
   -0.1856    0.0011    0.0000 C   0  0  1  0  0  0  0  0  0  0  0  0
   -0.1856    1.5011    0.0000 C   0  0  0  0  0  0  0  0  0  0  0  0
    1.1144    2.2511    0.0000 C   0  0  0  0  0  0  0  0  0  0  0  0
    2.4144    1.5011    0.0000 C   0  0  2  0  0  0  0  0  0  0  0  0
    2.5732    2.9927    0.0000 C   0  0  0  0  0  0  0  0  0  0  0  0
    6.2244    0.7511    0.0000 O   0  0  0  0  0  0  0  0  0  0  0  0
  2  1  1  1  0  0  0
  2  3  1  6  0  0  0
  3  4  3  0  0  0  0
  2  5  1  0  0  0  0
  5  6  1  0  0  0  0
  7  6  1  1  0  0  0
  7  8  1  0  0  0  0
  8  9  1  6  0  0  0
  9 10  1  0  0  0  0
 10 11  1  0  0  0  0
 11 12  2  0  0  0  0
 12 13  1  0  0  0  0
 13 14  2  0  0  0  0
 14 15  1  0  0  0  0
 15 16  1  0  0  0  0
 16 17  1  0  0  0  0
 15 18  2  0  0  0  0
 11 18  1  0  0  0  0
 12 19  1  0  0  0  0
  8 19  1  0  0  0  0
 19 20  1  1  0  0  0
 20 21  1  0  0  0  0
 22 21  1  6  0  0  0
  2 22  1  0  0  0  0
  7 22  1  0  0  0  0
 23 22  1  6  0  0  0
 24  5  1  0  0  0  0
M  END
> <InChI>
InChI=1S/C21H26O3/c1-4-21(23)19(22)12-18-17-7-5-13-11-14(24-3)6-8-15(13)16(17)9-10-20(18,21)2/h1,6,8,11,16-19,22-23H,5,7,9-10,12H2,2-3H3/t16-,17-,18+,19?,20+,21+/m1/s1

> <InChIKey>
UZMYOUPJBRZVTD-RHTGDULWSA-N

> <SMILES>
O[C@@]1(C#C)C(C[C@H]2[C@@H]3CCC4=C(C=CC(OC)=C4)[C@H]3CC[C@]12[C@@H3])O

> <Synonyms>


> <PUBCHEM_CID>


> <Molecular_formula>
C21H26O3

> <Major_Isotope_Mass>
326.188194692

> <ALogP>
4.145199999999996

> <Lipinski_Violations>
0

> <Insecticide_Likeness_Violations>
0

> <Post_Em_Herbicide_Likeness_Violations>
0

> <Metabolite_ID>
BTM00001

> <Reaction>
16-Hydroxylation of sterol

> <Reaction_ID>
BTMR0408

> <Enzyme(s)>
CYP1A2
CYP2A6
CYP2B6
CYP2C8
CYP2C9
CYP2C19
CYP2D6
CYP2E1
CYP3A4

> <Biosystem>
HUMAN

> <Precursor_ID>
TEST0091_Mestranol

> <Precursor_SMILES>
O[C@@]1(C#C)CC[C@H]2[C@@H]3CCC4=C(C=CC(OC)=C4)[C@H]3CC[C@]12[C@@H3]

> <Precursor_InChI>
InChI=1S/C21H26O2/c1-4-21(22)12-10-19-18-7-5-14-13-15(23-3)6-8-16(14)17(18)9-11-20(19,21)2/h1,6,8,13,17-19,22H,5,7,9-12H2,2-3H3/t17-,18-,19+,20+,21+/m1/s1

> <Precursor_InChIKey>
IMSSROKUHAOUJS-MJCUULBUSA-N

> <Precursor_ALogP>
5.112099

> <Precursor_Major_Isotope_Mass>
310.1932

$$$$
BTM00002
  CDK     08072417472D

 24 27  0  0  1  0  0  0  0  0999 V2000
    5.1440    2.7103    0.0000 O   0  0  0  0  0  0  0  0  0  0  0  0
    3.8444    1.9611    0.0000 C   0  0  1  0  0  0  0  0  0  0  0  0
    3.0424    3.7714    0.0000 C   0  0  0  0  0  0  0  0  0  0  0  0
    2.4347    5.1428    0.0000 C   0  0  0  0  0  0  0  0  0  0  0  0
    4.7244    0.7511    0.0000 C   0  0  0  0  0  0  0  0  0  0  0  0
    3.8444   -0.4589    0.0000 C   0  0  0  0  0  0  0  0  0  0  0  0
    2.4144    0.0011    0.0000 C   0  0  1  0  0  0  0  0  0  0  0  0
    1.1144   -0.7489    0.0000 C   0  0  2  0  0  0  0  0  0  0  0  0
    1.1144   -2.2489    0.0000 C   0  0  0  0  0  0  0  0  0  0  0  0
   -0.1856   -2.9989    0.0000 C   0  0  0  0  0  0  0  0  0  0  0  0
   -1.4856   -2.2489    0.0000 C   0  0  0  0  0  0  0  0  0  0  0  0
   -1.4856   -0.7489    0.0000 C   0  0  0  0  0  0  0  0  0  0  0  0
   -2.7856    0.0011    0.0000 C   0  0  0  0  0  0  0  0  0  0  0  0
   -4.0856   -0.7489    0.0000 C   0  0  0  0  0  0  0  0  0  0  0  0
   -4.0856   -2.2489    0.0000 C   0  0  0  0  0  0  0  0  0  0  0  0
   -5.3845   -2.9991    0.0000 O   0  0  0  0  0  0  0  0  0  0  0  0
   -6.6836   -2.2493    0.0000 C   0  0  0  0  0  0  0  0  0  0  0  0
   -2.7856   -2.9989    0.0000 C   0  0  0  0  0  0  0  0  0  0  0  0
   -0.1856    0.0011    0.0000 C   0  0  1  0  0  0  0  0  0  0  0  0
   -0.1856    1.5011    0.0000 C   0  0  0  0  0  0  0  0  0  0  0  0
    1.1144    2.2511    0.0000 C   0  0  0  0  0  0  0  0  0  0  0  0
    2.4144    1.5011    0.0000 C   0  0  2  0  0  0  0  0  0  0  0  0
    2.5732    2.9927    0.0000 C   0  0  0  0  0  0  0  0  0  0  0  0
   -5.3845    0.0014    0.0000 O   0  0  0  0  0  0  0  0  0  0  0  0
  2  1  1  1  0  0  0
  2  3  1  6  0  0  0
  3  4  3  0  0  0  0
  2  5  1  0  0  0  0
  5  6  1  0  0  0  0
  7  6  1  1  0  0  0
  7  8  1  0  0  0  0
  8  9  1  6  0  0  0
  9 10  1  0  0  0  0
 10 11  1  0  0  0  0
 11 12  2  0  0  0  0
 12 13  1  0  0  0  0
 13 14  2  0  0  0  0
 14 15  1  0  0  0  0
 15 16  1  0  0  0  0
 16 17  1  0  0  0  0
 15 18  2  0  0  0  0
 11 18  1  0  0  0  0
 12 19  1  0  0  0  0
  8 19  1  0  0  0  0
 19 20  1  1  0  0  0
 20 21  1  0  0  0  0
 22 21  1  6  0  0  0
  2 22  1  0  0  0  0
  7 22  1  0  0  0  0
 23 22  1  6  0  0  0
 24 14  1  0  0  0  0
M  END
> <InChI>
InChI=1S/C21H26O3/c1-4-21(23)10-8-17-15-6-5-13-11-19(24-3)18(22)12-16(13)14(15)7-9-20(17,21)2/h1,11-12,14-15,17,22-23H,5-10H2,2-3H3/t14-,15+,17-,20-,21-/m0/s1

> <InChIKey>
SKJZENPUQVKMJH-PVHGPHFFSA-N

> <SMILES>
O[C@@]1(C#C)CC[C@H]2[C@@H]3CCC4=C(C=C(C(OC)=C4)O)[C@H]3CC[C@]12[C@@H3]

> <Synonyms>


> <PUBCHEM_CID>


> <Molecular_formula>
C21H26O3

> <Major_Isotope_Mass>
326.18819469199997

> <ALogP>
4.8447000000000005

> <Lipinski_Violations>
0

> <Insecticide_Likeness_Violations>
0

> <Post_Em_Herbicide_Likeness_Violations>
0

> <Metabolite_ID>
BTM00002

> <Reaction>
2-Hydroxylation of sterol

> <Reaction_ID>
BTMR0399

> <Enzyme(s)>
CYP1A2
CYP2C19
CYP3A4

> <Biosystem>
HUMAN

> <Precursor_ID>
TEST0091_Mestranol

> <Precursor_SMILES>
O[C@@]1(C#C)CC[C@H]2[C@@H]3CCC4=C(C=CC(OC)=C4)[C@H]3CC[C@]12[C@@H3]

> <Precursor_InChI>
InChI=1S/C21H26O2/c1-4-21(22)12-10-19-18-7-5-14-13-15(23-3)6-8-16(14)17(18)9-11-20(19,21)2/h1,6,8,13,17-19,22H,5,7,9-12H2,2-3H3/t17-,18-,19+,20+,21+/m1/s1

> <Precursor_InChIKey>
IMSSROKUHAOUJS-MJCUULBUSA-N

> <Precursor_ALogP>
5.112099

> <Precursor_Major_Isotope_Mass>
310.1932

$$$$
BTM00003
  CDK     08072417472D

 24 27  0  0  1  0  0  0  0  0999 V2000
    5.1440    2.7103    0.0000 O   0  0  0  0  0  0  0  0  0  0  0  0
    3.8444    1.9611    0.0000 C   0  0  1  0  0  0  0  0  0  0  0  0
    3.0424    3.7714    0.0000 C   0  0  0  0  0  0  0  0  0  0  0  0
    2.4347    5.1428    0.0000 C   0  0  0  0  0  0  0  0  0  0  0  0
    4.7244    0.7511    0.0000 C   0  0  0  0  0  0  0  0  0  0  0  0
    3.8444   -0.4589    0.0000 C   0  0  0  0  0  0  0  0  0  0  0  0
    2.4144    0.0011    0.0000 C   0  0  1  0  0  0  0  0  0  0  0  0
    1.1144   -0.7489    0.0000 C   0  0  2  0  0  0  0  0  0  0  0  0
    1.1144   -2.2489    0.0000 C   0  0  0  0  0  0  0  0  0  0  0  0
   -0.1856   -2.9989    0.0000 C   0  0  0  0  0  0  0  0  0  0  0  0
   -1.4856   -2.2489    0.0000 C   0  0  0  0  0  0  0  0  0  0  0  0
   -1.4856   -0.7489    0.0000 C   0  0  0  0  0  0  0  0  0  0  0  0
   -2.7856    0.0011    0.0000 C   0  0  0  0  0  0  0  0  0  0  0  0
   -4.0856   -0.7489    0.0000 C   0  0  0  0  0  0  0  0  0  0  0  0
   -4.0856   -2.2489    0.0000 C   0  0  0  0  0  0  0  0  0  0  0  0
   -5.3845   -2.9991    0.0000 O   0  0  0  0  0  0  0  0  0  0  0  0
   -6.6836   -2.2493    0.0000 C   0  0  0  0  0  0  0  0  0  0  0  0
   -2.7856   -2.9989    0.0000 C   0  0  0  0  0  0  0  0  0  0  0  0
   -0.1856    0.0011    0.0000 C   0  0  1  0  0  0  0  0  0  0  0  0
   -0.1856    1.5011    0.0000 C   0  0  0  0  0  0  0  0  0  0  0  0
    1.1144    2.2511    0.0000 C   0  0  0  0  0  0  0  0  0  0  0  0
    2.4144    1.5011    0.0000 C   0  0  2  0  0  0  0  0  0  0  0  0
    2.5732    2.9927    0.0000 C   0  0  0  0  0  0  0  0  0  0  0  0
   -2.7856   -4.4989    0.0000 O   0  0  0  0  0  0  0  0  0  0  0  0
  2  1  1  1  0  0  0
  2  3  1  6  0  0  0
  3  4  3  0  0  0  0
  2  5  1  0  0  0  0
  5  6  1  0  0  0  0
  7  6  1  1  0  0  0
  7  8  1  0  0  0  0
  8  9  1  6  0  0  0
  9 10  1  0  0  0  0
 10 11  1  0  0  0  0
 11 12  2  0  0  0  0
 12 13  1  0  0  0  0
 13 14  2  0  0  0  0
 14 15  1  0  0  0  0
 15 16  1  0  0  0  0
 16 17  1  0  0  0  0
 15 18  2  0  0  0  0
 11 18  1  0  0  0  0
 12 19  1  0  0  0  0
  8 19  1  0  0  0  0
 19 20  1  1  0  0  0
 20 21  1  0  0  0  0
 22 21  1  6  0  0  0
  2 22  1  0  0  0  0
  7 22  1  0  0  0  0
 23 22  1  6  0  0  0
 24 18  1  0  0  0  0
M  END
> <InChI>
InChI=1S/C21H26O3/c1-4-21(23)12-10-17-15-5-6-16-13(7-8-18(24-3)19(16)22)14(15)9-11-20(17,21)2/h1,7-8,14-15,17,22-23H,5-6,9-12H2,2-3H3/t14-,15-,17+,20+,21+/m1/s1

> <InChIKey>
SRAITNKTWXKYDH-QOGIMEQTSA-N

> <SMILES>
O[C@@]1(C#C)CC[C@H]2[C@@H]3CCC4=C(C=CC(OC)=C4O)[C@H]3CC[C@]12[C@@H3]

> <Synonyms>


> <PUBCHEM_CID>


> <Molecular_formula>
C21H26O3

> <Major_Isotope_Mass>
326.18819469199997

> <ALogP>
4.8447000000000005

> <Lipinski_Violations>
0

> <Insecticide_Likeness_Violations>
0

> <Post_Em_Herbicide_Likeness_Violations>
0

> <Metabolite_ID>
BTM00003

> <Reaction>
4-Hydroxylation of sterol

> <Reaction_ID>
BTMR0401

> <Enzyme(s)>
CYP1A2
CYP3A4

> <Biosystem>
HUMAN

> <Precursor_ID>
TEST0091_Mestranol

> <Precursor_SMILES>
O[C@@]1(C#C)CC[C@H]2[C@@H]3CCC4=C(C=CC(OC)=C4)[C@H]3CC[C@]12[C@@H3]

> <Precursor_InChI>
InChI=1S/C21H26O2/c1-4-21(22)12-10-19-18-7-5-14-13-15(23-3)6-8-16(14)17(18)9-11-20(19,21)2/h1,6,8,13,17-19,22H,5,7,9-12H2,2-3H3/t17-,18-,19+,20+,21+/m1/s1

> <Precursor_InChIKey>
IMSSROKUHAOUJS-MJCUULBUSA-N

> <Precursor_ALogP>
5.112099

> <Precursor_Major_Isotope_Mass>
310.1932

$$$$
BTM00004
  CDK     08072417472D

 22 25  0  0  1  0  0  0  0  0999 V2000
    4.8956    2.3402    0.0000 O   0  0  0  0  0  0  0  0  0  0  0  0
    3.5957    1.5917    0.0000 C   0  0  1  0  0  0  0  0  0  0  0  0
    2.7884    3.3996    0.0000 C   0  0  0  0  0  0  0  0  0  0  0  0
    2.1767    4.7693    0.0000 C   0  0  0  0  0  0  0  0  0  0  0  0
    4.4757    0.3717    0.0000 C   0  0  0  0  0  0  0  0  0  0  0  0
    3.5957   -0.8383    0.0000 C   0  0  0  0  0  0  0  0  0  0  0  0
    2.1657   -0.3783    0.0000 C   0  0  1  0  0  0  0  0  0  0  0  0
    0.8657   -1.1283    0.0000 C   0  0  2  0  0  0  0  0  0  0  0  0
    0.8657   -2.6283    0.0000 C   0  0  0  0  0  0  0  0  0  0  0  0
   -0.4343   -3.3783    0.0000 C   0  0  0  0  0  0  0  0  0  0  0  0
   -1.7343   -2.6283    0.0000 C   0  0  0  0  0  0  0  0  0  0  0  0
   -1.7343   -1.1283    0.0000 C   0  0  0  0  0  0  0  0  0  0  0  0
   -3.0343   -0.3783    0.0000 C   0  0  0  0  0  0  0  0  0  0  0  0
   -4.3343   -1.1283    0.0000 C   0  0  0  0  0  0  0  0  0  0  0  0
   -4.3343   -2.6283    0.0000 C   0  0  0  0  0  0  0  0  0  0  0  0
   -5.6332   -3.3785    0.0000 O   0  0  0  0  0  0  0  0  0  0  0  0
   -3.0343   -3.3783    0.0000 C   0  0  0  0  0  0  0  0  0  0  0  0
   -0.4343   -0.3783    0.0000 C   0  0  1  0  0  0  0  0  0  0  0  0
   -0.4343    1.1217    0.0000 C   0  0  0  0  0  0  0  0  0  0  0  0
    0.8657    1.8717    0.0000 C   0  0  0  0  0  0  0  0  0  0  0  0
    2.1657    1.1217    0.0000 C   0  0  2  0  0  0  0  0  0  0  0  0
    2.3197    2.6138    0.0000 C   0  0  0  0  0  0  0  0  0  0  0  0
  2  1  1  1  0  0  0
  2  3  1  6  0  0  0
  3  4  3  0  0  0  0
  2  5  1  0  0  0  0
  5  6  1  0  0  0  0
  7  6  1  1  0  0  0
  7  8  1  0  0  0  0
  8  9  1  6  0  0  0
  9 10  1  0  0  0  0
 10 11  1  0  0  0  0
 11 12  2  0  0  0  0
 12 13  1  0  0  0  0
 13 14  2  0  0  0  0
 14 15  1  0  0  0  0
 15 16  1  0  0  0  0
 15 17  2  0  0  0  0
 11 17  1  0  0  0  0
 12 18  1  0  0  0  0
  8 18  1  0  0  0  0
 18 19  1  1  0  0  0
 19 20  1  0  0  0  0
 21 20  1  6  0  0  0
  2 21  1  0  0  0  0
  7 21  1  0  0  0  0
 22 21  1  6  0  0  0
M  END
> <InChI>
InChI=1S/C20H24O2/c1-3-20(22)11-9-18-17-6-4-13-12-14(21)5-7-15(13)16(17)8-10-19(18,20)2/h1,5,7,12,16-18,21-22H,4,6,8-11H2,2H3/t16-,17-,18+,19+,20+/m1/s1

> <InChIKey>
BFPYWIDHMRZLRN-SLHNCBLASA-N

> <SMILES>
O[C@@]1(C#C)CC[C@H]2[C@@H]3CCC4=C(C=CC(O)=C4)[C@H]3CC[C@]12[C@@H3]

> <Synonyms>


> <PUBCHEM_CID>


> <Molecular_formula>
C20H24O2

> <Major_Isotope_Mass>
296.177630008

> <ALogP>
4.861099999999998

> <Lipinski_Violations>
0

> <Insecticide_Likeness_Violations>
0

> <Post_Em_Herbicide_Likeness_Violations>
0

> <Metabolite_ID>
BTM00004

> <Reaction>
O-Dealkylation

> <Reaction_ID>
BTMR0052

> <Enzyme(s)>
CYP1A2
CYP2A6
CYP2C9
CYP2C19
CYP2D6
CYP2E1
CYP3A4

> <Biosystem>
HUMAN

> <Precursor_ID>
TEST0091_Mestranol

> <Precursor_SMILES>
O[C@@]1(C#C)CC[C@H]2[C@@H]3CCC4=C(C=CC(OC)=C4)[C@H]3CC[C@]12[C@@H3]

> <Precursor_InChI>
InChI=1S/C21H26O2/c1-4-21(22)12-10-19-18-7-5-14-13-15(23-3)6-8-16(14)17(18)9-11-20(19,21)2/h1,6,8,13,17-19,22H,5,7,9-12H2,2-3H3/t17-,18-,19+,20+,21+/m1/s1

> <Precursor_InChIKey>
IMSSROKUHAOUJS-MJCUULBUSA-N

> <Precursor_ALogP>
5.112099

> <Precursor_Major_Isotope_Mass>
310.1932

$$$$
BTM00005
  CDK     08072417472D

 24 27  0  0  1  0  0  0  0  0999 V2000
    5.1440    2.7103    0.0000 O   0  0  0  0  0  0  0  0  0  0  0  0
    3.8444    1.9611    0.0000 C   0  0  1  0  0  0  0  0  0  0  0  0
    3.0424    3.7714    0.0000 C   0  0  0  0  0  0  0  0  0  0  0  0
    2.4347    5.1428    0.0000 C   0  0  0  0  0  0  0  0  0  0  0  0
    4.7244    0.7511    0.0000 C   0  0  0  0  0  0  0  0  0  0  0  0
    3.8444   -0.4589    0.0000 C   0  0  0  0  0  0  0  0  0  0  0  0
    2.4144    0.0011    0.0000 C   0  0  1  0  0  0  0  0  0  0  0  0
    1.1144   -0.7489    0.0000 C   0  0  2  0  0  0  0  0  0  0  0  0
    1.1144   -2.2489    0.0000 C   0  0  0  0  0  0  0  0  0  0  0  0
   -0.1856   -2.9989    0.0000 C   0  0  0  0  0  0  0  0  0  0  0  0
   -1.4856   -2.2489    0.0000 C   0  0  0  0  0  0  0  0  0  0  0  0
   -1.4856   -0.7489    0.0000 C   0  0  0  0  0  0  0  0  0  0  0  0
   -2.7856    0.0011    0.0000 C   0  0  0  0  0  0  0  0  0  0  0  0
   -4.0856   -0.7489    0.0000 C   0  0  0  0  0  0  0  0  0  0  0  0
   -4.0856   -2.2489    0.0000 C   0  0  0  0  0  0  0  0  0  0  0  0
   -5.3845   -2.9991    0.0000 O   0  0  0  0  0  0  0  0  0  0  0  0
   -6.6836   -2.2493    0.0000 C   0  0  0  0  0  0  0  0  0  0  0  0
   -2.7856   -2.9989    0.0000 C   0  0  0  0  0  0  0  0  0  0  0  0
   -0.1856    0.0011    0.0000 C   0  0  1  0  0  0  0  0  0  0  0  0
   -0.1856    1.5011    0.0000 C   0  0  0  0  0  0  0  0  0  0  0  0
    1.1144    2.2511    0.0000 C   0  0  0  0  0  0  0  0  0  0  0  0
    2.4144    1.5011    0.0000 C   0  0  2  0  0  0  0  0  0  0  0  0
    2.5732    2.9927    0.0000 C   0  0  0  0  0  0  0  0  0  0  0  0
   -0.1856   -4.4989    0.0000 O   0  0  0  0  0  0  0  0  0  0  0  0
  2  1  1  1  0  0  0
  2  3  1  6  0  0  0
  3  4  3  0  0  0  0
  2  5  1  0  0  0  0
  5  6  1  0  0  0  0
  7  6  1  1  0  0  0
  7  8  1  0  0  0  0
  8  9  1  6  0  0  0
  9 10  1  0  0  0  0
 10 11  1  0  0  0  0
 11 12  2  0  0  0  0
 12 13  1  0  0  0  0
 13 14  2  0  0  0  0
 14 15  1  0  0  0  0
 15 16  1  0  0  0  0
 16 17  1  0  0  0  0
 15 18  2  0  0  0  0
 11 18  1  0  0  0  0
 12 19  1  0  0  0  0
  8 19  1  0  0  0  0
 19 20  1  1  0  0  0
 20 21  1  0  0  0  0
 22 21  1  6  0  0  0
  2 22  1  0  0  0  0
  7 22  1  0  0  0  0
 23 22  1  6  0  0  0
 24 10  1  0  0  0  0
M  END
> <InChI>
InChI=1S/C21H26O3/c1-4-21(23)10-8-18-16-12-19(22)17-11-13(24-3)5-6-14(17)15(16)7-9-20(18,21)2/h1,5-6,11,15-16,18-19,22-23H,7-10,12H2,2-3H3/t15-,16-,18+,19?,20+,21+/m1/s1

> <InChIKey>
KEBORPGMLOMTJD-XNOUVKAISA-N

> <SMILES>
O[C@@]1(C#C)CC[C@H]2[C@@H]3CC(C4=C(C=CC(OC)=C4)[C@H]3CC[C@]12[C@@H3])O

> <Synonyms>


> <PUBCHEM_CID>


> <Molecular_formula>
C21H26O3

> <Major_Isotope_Mass>
326.188194692

> <ALogP>
4.010199999999997

> <Lipinski_Violations>
0

> <Insecticide_Likeness_Violations>
0

> <Post_Em_Herbicide_Likeness_Violations>
0

> <Metabolite_ID>
BTM00005

> <Reaction>
6-Hydroxylation of sterol

> <Reaction_ID>
BTMR0403

> <Enzyme(s)>
CYP2A6
CYP2B6
CYP2C8
CYP2C9
CYP2C19
CYP2D6
CYP3A4

> <Biosystem>
HUMAN

> <Precursor_ID>
TEST0091_Mestranol

> <Precursor_SMILES>
O[C@@]1(C#C)CC[C@H]2[C@@H]3CCC4=C(C=CC(OC)=C4)[C@H]3CC[C@]12[C@@H3]

> <Precursor_InChI>
InChI=1S/C21H26O2/c1-4-21(22)12-10-19-18-7-5-14-13-15(23-3)6-8-16(14)17(18)9-11-20(19,21)2/h1,6,8,13,17-19,22H,5,7,9-12H2,2-3H3/t17-,18-,19+,20+,21+/m1/s1

> <Precursor_InChIKey>
IMSSROKUHAOUJS-MJCUULBUSA-N

> <Precursor_ALogP>
5.112099

> <Precursor_Major_Isotope_Mass>
310.1932

$$$$
BTM00006
  CDK     08072417472D

 24 27  0  0  1  0  0  0  0  0999 V2000
    4.6999    2.7785    0.0000 O   0  0  0  0  0  0  0  0  0  0  0  0
    3.4000    2.0300    0.0000 C   0  0  1  0  0  0  0  0  0  0  0  0
    3.0355    3.4850    0.0000 C   0  0  0  0  0  0  0  0  0  0  0  0
    2.6710    4.9401    0.0000 C   0  0  0  0  0  0  0  0  0  0  0  0
    4.2800    0.8100    0.0000 C   0  0  0  0  0  0  0  0  0  0  0  0
    3.4000   -0.4000    0.0000 C   0  0  0  0  0  0  0  0  0  0  0  0
    1.9700    0.0600    0.0000 C   0  0  1  0  0  0  0  0  0  0  0  0
    0.6700   -0.6900    0.0000 C   0  0  2  0  0  0  0  0  0  0  0  0
    0.6700   -2.1900    0.0000 C   0  0  0  0  0  0  0  0  0  0  0  0
   -0.6300   -2.9400    0.0000 C   0  0  0  0  0  0  0  0  0  0  0  0
   -1.9300   -2.1900    0.0000 C   0  0  0  0  0  0  0  0  0  0  0  0
   -1.9300   -0.6900    0.0000 C   0  0  0  0  0  0  0  0  0  0  0  0
   -3.2300    0.0600    0.0000 C   0  0  0  0  0  0  0  0  0  0  0  0
   -4.5300   -0.6900    0.0000 C   0  0  0  0  0  0  0  0  0  0  0  0
   -4.5300   -2.1900    0.0000 C   0  0  0  0  0  0  0  0  0  0  0  0
   -5.8289   -2.9402    0.0000 O   0  0  0  0  0  0  0  0  0  0  0  0
   -7.1281   -2.1904    0.0000 C   0  0  0  0  0  0  0  0  0  0  0  0
   -3.2300   -2.9400    0.0000 C   0  0  0  0  0  0  0  0  0  0  0  0
   -0.6300    0.0600    0.0000 C   0  0  1  0  0  0  0  0  0  0  0  0
   -0.6300    1.5600    0.0000 C   0  0  0  0  0  0  0  0  0  0  0  0
    0.6700    2.3100    0.0000 C   0  0  0  0  0  0  0  0  0  0  0  0
    1.9700    1.5600    0.0000 C   0  0  2  0  0  0  0  0  0  0  0  0
    2.1240    3.0521    0.0000 C   0  0  0  0  0  0  0  0  0  0  0  0
    0.9089    3.9315    0.0000 O   0  0  0  0  0  0  0  0  0  0  0  0
  2  1  1  1  0  0  0
  2  3  1  6  0  0  0
  3  4  3  0  0  0  0
  2  5  1  0  0  0  0
  5  6  1  0  0  0  0
  7  6  1  1  0  0  0
  7  8  1  0  0  0  0
  8  9  1  6  0  0  0
  9 10  1  0  0  0  0
 10 11  1  0  0  0  0
 11 12  2  0  0  0  0
 12 13  1  0  0  0  0
 13 14  2  0  0  0  0
 14 15  1  0  0  0  0
 15 16  1  0  0  0  0
 16 17  1  0  0  0  0
 15 18  2  0  0  0  0
 11 18  1  0  0  0  0
 12 19  1  0  0  0  0
  8 19  1  0  0  0  0
 19 20  1  1  0  0  0
 20 21  1  0  0  0  0
 22 21  1  0  0  0  0
  2 22  1  0  0  0  0
  7 22  1  0  0  0  0
 22 23  1  1  0  0  0
 24 23  1  0  0  0  0
M  END
> <InChI>
InChI=1S/C21H26O3/c1-3-21(23)11-9-19-18-6-4-14-12-15(24-2)5-7-16(14)17(18)8-10-20(19,21)13-22/h1,5,7,12,17-19,22-23H,4,6,8-11,13H2,2H3/t17-,18-,19+,20-,21+/m1/s1

> <InChIKey>
JXRCGPSXHHQHSH-ADAARDCZSA-N

> <SMILES>
O[C@@]1(C#C)CC[C@H]2[C@@H]3CCC4=C(C=CC(OC)=C4)[C@H]3CC[C@]12CO

> <Synonyms>


> <PUBCHEM_CID>


> <Molecular_formula>
C21H26O3

> <Major_Isotope_Mass>
326.188194692

> <ALogP>
4.0214

> <Lipinski_Violations>
0

> <Insecticide_Likeness_Violations>
0

> <Post_Em_Herbicide_Likeness_Violations>
0

> <Metabolite_ID>
BTM00006

> <Reaction>
Hydroxylation of methyl carbon adjacent to aliphatic ring

> <Reaction_ID>
BTMR0054

> <Enzyme(s)>
CYP2B6
CYP2C8
CYP2C9
CYP2C19
CYP2D6
CYP3A4

> <Biosystem>
HUMAN

> <Precursor_ID>
TEST0091_Mestranol

> <Precursor_SMILES>
O[C@@]1(C#C)CC[C@H]2[C@@H]3CCC4=C(C=CC(OC)=C4)[C@H]3CC[C@]12[C@@H3]

> <Precursor_InChI>
InChI=1S/C21H26O2/c1-4-21(22)12-10-19-18-7-5-14-13-15(23-3)6-8-16(14)17(18)9-11-20(19,21)2/h1,6,8,13,17-19,22H,5,7,9-12H2,2-3H3/t17-,18-,19+,20+,21+/m1/s1

> <Precursor_InChIKey>
IMSSROKUHAOUJS-MJCUULBUSA-N

> <Precursor_ALogP>
5.112099

> <Precursor_Major_Isotope_Mass>
310.1932

$$$$
