BTM00001
  CDK     08072417392D

 27 29  0  0  0  0  0  0  0  0999 V2000
  -10.3952   -0.7508    0.0000 O   0  0  0  0  0  0  0  0  0  0  0  0
   -9.0963   -1.5010    0.0000 C   0  0  0  0  0  0  0  0  0  0  0  0
   -9.0965   -3.0010    0.0000 O   0  0  0  0  0  0  0  0  0  0  0  0
   -7.7971   -0.7512    0.0000 C   0  0  0  0  0  0  0  0  0  0  0  0
   -7.7966    0.7496    0.0000 C   0  0  0  0  0  0  0  0  0  0  0  0
   -6.4971    1.5004    0.0000 C   0  0  0  0  0  0  0  0  0  0  0  0
   -5.1981    0.7504    0.0000 C   0  0  0  0  0  0  0  0  0  0  0  0
   -3.8989    1.5002    0.0000 C   0  0  0  0  0  0  0  0  0  0  0  0
   -2.6000    0.7500    0.0000 C   0  0  0  0  0  0  0  0  0  0  0  0
   -1.3000    1.5000    0.0000 C   0  0  0  0  0  0  0  0  0  0  0  0
    0.0000    0.7500    0.0000 C   0  0  0  0  0  0  0  0  0  0  0  0
    1.3000    1.5000    0.0000 C   0  0  0  0  0  0  0  0  0  0  0  0
    2.6000    0.7500    0.0000 C   0  0  0  0  0  0  0  0  0  0  0  0
    2.6000   -0.7500    0.0000 C   0  0  0  0  0  0  0  0  0  0  0  0
    1.3000   -1.5000    0.0000 C   0  0  0  0  0  0  0  0  0  0  0  0
    0.0000   -0.7500    0.0000 C   0  0  0  0  0  0  0  0  0  0  0  0
   -1.3000   -1.5000    0.0000 C   0  0  0  0  0  0  0  0  0  0  0  0
   -2.6000   -0.7500    0.0000 C   0  0  0  0  0  0  0  0  0  0  0  0
   -3.8989   -1.5002    0.0000 C   0  0  0  0  0  0  0  0  0  0  0  0
    0.3359   -2.6492    0.0000 C   0  0  0  0  0  0  0  0  0  0  0  0
    2.2641   -2.6492    0.0000 C   0  0  0  0  0  0  0  0  0  0  0  0
    2.2641    2.6492    0.0000 C   0  0  0  0  0  0  0  0  0  0  0  0
    0.3359    2.6492    0.0000 C   0  0  0  0  0  0  0  0  0  0  0  0
   -3.8987    3.0002    0.0000 C   0  0  0  0  0  0  0  0  0  0  0  0
   -5.1986   -0.7504    0.0000 C   0  0  0  0  0  0  0  0  0  0  0  0
   -6.4981   -1.5012    0.0000 C   0  0  0  0  0  0  0  0  0  0  0  0
   -3.8987   -3.0002    0.0000 O   0  0  0  0  0  0  0  0  0  0  0  0
  1  2  1  0  0  0  0
  2  3  2  0  0  0  0
  2  4  1  0  0  0  0
  4  5  2  0  0  0  0
  5  6  1  0  0  0  0
  6  7  2  0  0  0  0
  7  8  1  0  0  0  0
  8  9  1  0  0  0  0
  9 10  2  0  0  0  0
 10 11  1  0  0  0  0
 11 12  1  0  0  0  0
 12 13  1  0  0  0  0
 13 14  1  0  0  0  0
 14 15  1  0  0  0  0
 15 16  1  0  0  0  0
 11 16  2  0  0  0  0
 16 17  1  0  0  0  0
 17 18  2  0  0  0  0
  9 18  1  0  0  0  0
 18 19  1  0  0  0  0
 15 20  1  0  0  0  0
 15 21  1  0  0  0  0
 12 22  1  0  0  0  0
 12 23  1  0  0  0  0
  8 24  2  0  0  0  0
  7 25  1  0  0  0  0
 25 26  2  0  0  0  0
  4 26  1  0  0  0  0
 27 19  1  0  0  0  0
M  END
> <InChI>
InChI=1S/C24H28O3/c1-15(16-6-8-17(9-7-16)22(26)27)19-13-21-20(12-18(19)14-25)23(2,3)10-11-24(21,4)5/h6-9,12-13,25H,1,10-11,14H2,2-5H3,(H,26,27)

> <InChIKey>
GAIKXENNAPPIPY-UHFFFAOYSA-N

> <SMILES>
OC(=O)C1=CC=C(C(C2=CC=3C(CCC(C3C=C2CO)(C)C)(C)C)=C)C=C1

> <Synonyms>


> <PUBCHEM_CID>


> <Molecular_formula>
C24H28O3

> <Major_Isotope_Mass>
364.20384475599997

> <ALogP>
5.289400000000002

> <Lipinski_Violations>
1

> <Insecticide_Likeness_Violations>
0

> <Post_Em_Herbicide_Likeness_Violations>
0

> <Metabolite_ID>
BTM00001

> <Reaction>
Aliphatic hydroxylation of methyl carbon adjacent to aromatic ring

> <Reaction_ID>
BTMR1058

> <Enzyme(s)>
CYP1A2
CYP2A6
CYP2B6
CYP2C8
CYP2C9
CYP2C19
CYP2D6
CYP2E1
CYP3A4

> <Biosystem>
HUMAN

> <Precursor_ID>
TEST0013_Bexarotene

> <Precursor_SMILES>
OC(=O)C1=CC=C(C(C2=CC=3C(CCC(C3C=C2C)(C)C)(C)C)=C)C=C1

> <Precursor_InChI>
InChI=1S/C24H28O2/c1-15-13-20-21(24(5,6)12-11-23(20,3)4)14-19(15)16(2)17-7-9-18(10-8-17)22(25)26/h7-10,13-14H,2,11-12H2,1,3-6H3,(H,25,26)

> <Precursor_InChIKey>
NAVMQTYZDKMPEU-UHFFFAOYSA-N

> <Precursor_ALogP>
6.3801

> <Precursor_Major_Isotope_Mass>
348.2089

$$$$
BTM00002
  CDK     08072417392D

 27 30  0  0  0  0  0  0  0  0999 V2000
   -9.2335   -2.8369    0.0000 O   0  0  0  0  0  0  0  0  0  0  0  0
   -7.7563   -3.0976    0.0000 C   0  0  0  0  0  0  0  0  0  0  0  0
   -7.2435   -4.5073    0.0000 O   0  0  0  0  0  0  0  0  0  0  0  0
   -6.7920   -1.9487    0.0000 C   0  0  0  0  0  0  0  0  0  0  0  0
   -7.3048   -0.5382    0.0000 C   0  0  0  0  0  0  0  0  0  0  0  0
   -6.3405    0.6118    0.0000 C   0  0  0  0  0  0  0  0  0  0  0  0
   -4.8633    0.3513    0.0000 C   0  0  0  0  0  0  0  0  0  0  0  0
   -3.8989    1.5002    0.0000 C   0  0  0  0  0  0  0  0  0  0  0  0
   -2.6000    0.7500    0.0000 C   0  0  0  0  0  0  0  0  0  0  0  0
   -2.6000   -0.7508    0.0000 C   0  0  0  0  0  0  0  0  0  0  0  0
   -1.3007   -1.5021    0.0000 C   0  0  0  0  0  0  0  0  0  0  0  0
   -1.3007   -3.0029    0.0000 C   0  0  0  0  0  0  0  0  0  0  0  0
   -0.0014   -3.7542    0.0000 C   0  0  0  0  0  0  0  0  0  0  0  0
    1.2978   -3.0046    0.0000 C   0  0  0  0  0  0  0  0  0  0  0  0
    1.2978   -1.5037    0.0000 C   0  0  0  0  0  0  0  0  0  0  0  0
   -0.0014   -0.7525    0.0000 C   0  0  0  0  0  0  0  0  0  0  0  0
   -0.0014    0.7483    0.0000 C   0  0  0  0  0  0  0  0  0  0  0  0
   -1.3007    1.4996    0.0000 C   0  0  0  0  0  0  0  0  0  0  0  0
   -1.3000    2.9996    0.0000 C   0  0  0  0  0  0  0  0  0  0  0  0
    1.8115   -0.0944    0.0000 C   0  0  0  0  0  0  0  0  0  0  0  0
    2.7750   -1.7645    0.0000 C   0  0  0  0  0  0  0  0  0  0  0  0
   -1.8144   -4.4122    0.0000 C   0  0  0  0  0  0  0  0  0  0  0  0
   -2.7779   -2.7421    0.0000 C   0  0  0  0  0  0  0  0  0  0  0  0
   -3.3857    2.9097    0.0000 C   0  0  0  0  0  0  0  0  0  0  0  0
   -4.3504   -1.0592    0.0000 C   0  0  0  0  0  0  0  0  0  0  0  0
   -5.3148   -2.2092    0.0000 C   0  0  0  0  0  0  0  0  0  0  0  0
   -4.8629    2.6494    0.0000 O   0  0  0  0  0  0  0  0  0  0  0  0
  1  2  1  0  0  0  0
  2  3  2  0  0  0  0
  2  4  1  0  0  0  0
  4  5  2  0  0  0  0
  5  6  1  0  0  0  0
  6  7  2  0  0  0  0
  7  8  1  0  0  0  0
  8  9  1  0  0  0  0
  9 10  2  0  0  0  0
 10 11  1  0  0  0  0
 11 12  1  0  0  0  0
 12 13  1  0  0  0  0
 13 14  1  0  0  0  0
 14 15  1  0  0  0  0
 15 16  1  0  0  0  0
 11 16  2  0  0  0  0
 16 17  1  0  0  0  0
 17 18  2  0  0  0  0
  9 18  1  0  0  0  0
 18 19  1  0  0  0  0
 15 20  1  0  0  0  0
 15 21  1  0  0  0  0
 12 22  1  0  0  0  0
 12 23  1  0  0  0  0
  8 24  1  0  0  0  0
  7 25  1  0  0  0  0
 25 26  2  0  0  0  0
  4 26  1  0  0  0  0
  8 27  1  0  0  0  0
 27 24  1  0  0  0  0
M  END
> <InChI>
InChI=1S/C24H28O3/c1-15-12-19-20(23(4,5)11-10-22(19,2)3)13-18(15)24(14-27-24)17-8-6-16(7-9-17)21(25)26/h6-9,12-13H,10-11,14H2,1-5H3,(H,25,26)

> <InChIKey>
DAUWSBRWCVRVRP-UHFFFAOYSA-N

> <SMILES>
OC(=O)C1=CC=C(C2(C3=CC=4C(CCC(C4C=C3C)(C)C)(C)C)CO2)C=C1

> <Synonyms>


> <PUBCHEM_CID>


> <Molecular_formula>
C24H28O3

> <Major_Isotope_Mass>
364.20384475599997

> <ALogP>
5.4408

> <Lipinski_Violations>
1

> <Insecticide_Likeness_Violations>
0

> <Post_Em_Herbicide_Likeness_Violations>
0

> <Metabolite_ID>
BTM00002

> <Reaction>
Epoxidation of alkene

> <Reaction_ID>
BTMR0109

> <Enzyme(s)>
CYP1A2
CYP2B6
CYP2B6
CYP2C8
CYP2C9
CYP2C19
CYP2D6
CYP2E1
CYP3A4

> <Biosystem>
HUMAN

> <Precursor_ID>
TEST0013_Bexarotene

> <Precursor_SMILES>
OC(=O)C1=CC=C(C(C2=CC=3C(CCC(C3C=C2C)(C)C)(C)C)=C)C=C1

> <Precursor_InChI>
InChI=1S/C24H28O2/c1-15-13-20-21(24(5,6)12-11-23(20,3)4)14-19(15)16(2)17-7-9-18(10-8-17)22(25)26/h7-10,13-14H,2,11-12H2,1,3-6H3,(H,25,26)

> <Precursor_InChIKey>
NAVMQTYZDKMPEU-UHFFFAOYSA-N

> <Precursor_ALogP>
6.3801

> <Precursor_Major_Isotope_Mass>
348.2089

$$$$
BTM00003
  CDK     08072417392D

 27 29  0  0  0  0  0  0  0  0999 V2000
  -10.3952   -0.7508    0.0000 O   0  0  0  0  0  0  0  0  0  0  0  0
   -9.0963   -1.5010    0.0000 C   0  0  0  0  0  0  0  0  0  0  0  0
   -9.0965   -3.0010    0.0000 O   0  0  0  0  0  0  0  0  0  0  0  0
   -7.7971   -0.7512    0.0000 C   0  0  0  0  0  0  0  0  0  0  0  0
   -7.7966    0.7496    0.0000 C   0  0  0  0  0  0  0  0  0  0  0  0
   -6.4971    1.5004    0.0000 C   0  0  0  0  0  0  0  0  0  0  0  0
   -5.1981    0.7504    0.0000 C   0  0  0  0  0  0  0  0  0  0  0  0
   -3.8989    1.5002    0.0000 C   0  0  0  0  0  0  0  0  0  0  0  0
   -2.6000    0.7500    0.0000 C   0  0  0  0  0  0  0  0  0  0  0  0
   -1.3000    1.5000    0.0000 C   0  0  0  0  0  0  0  0  0  0  0  0
    0.0000    0.7500    0.0000 C   0  0  0  0  0  0  0  0  0  0  0  0
    1.3000    1.5000    0.0000 C   0  0  0  0  0  0  0  0  0  0  0  0
    2.6000    0.7500    0.0000 C   0  0  0  0  0  0  0  0  0  0  0  0
    2.6000   -0.7500    0.0000 C   0  0  0  0  0  0  0  0  0  0  0  0
    1.3000   -1.5000    0.0000 C   0  0  0  0  0  0  0  0  0  0  0  0
    0.0000   -0.7500    0.0000 C   0  0  0  0  0  0  0  0  0  0  0  0
   -1.3000   -1.5000    0.0000 C   0  0  0  0  0  0  0  0  0  0  0  0
   -2.6000   -0.7500    0.0000 C   0  0  0  0  0  0  0  0  0  0  0  0
   -3.8989   -1.5002    0.0000 C   0  0  0  0  0  0  0  0  0  0  0  0
    0.3359   -2.6492    0.0000 C   0  0  0  0  0  0  0  0  0  0  0  0
    2.2641   -2.6492    0.0000 C   0  0  0  0  0  0  0  0  0  0  0  0
    2.2641    2.6492    0.0000 C   0  0  0  0  0  0  0  0  0  0  0  0
    0.3359    2.6492    0.0000 C   0  0  0  0  0  0  0  0  0  0  0  0
   -3.8987    3.0002    0.0000 C   0  0  0  0  0  0  0  0  0  0  0  0
   -5.1986   -0.7504    0.0000 C   0  0  0  0  0  0  0  0  0  0  0  0
   -6.4981   -1.5012    0.0000 C   0  0  0  0  0  0  0  0  0  0  0  0
    0.8491    4.0587    0.0000 O   0  0  0  0  0  0  0  0  0  0  0  0
  1  2  1  0  0  0  0
  2  3  2  0  0  0  0
  2  4  1  0  0  0  0
  4  5  2  0  0  0  0
  5  6  1  0  0  0  0
  6  7  2  0  0  0  0
  7  8  1  0  0  0  0
  8  9  1  0  0  0  0
  9 10  2  0  0  0  0
 10 11  1  0  0  0  0
 11 12  1  0  0  0  0
 12 13  1  0  0  0  0
 13 14  1  0  0  0  0
 14 15  1  0  0  0  0
 15 16  1  0  0  0  0
 11 16  2  0  0  0  0
 16 17  1  0  0  0  0
 17 18  2  0  0  0  0
  9 18  1  0  0  0  0
 18 19  1  0  0  0  0
 15 20  1  0  0  0  0
 15 21  1  0  0  0  0
 12 22  1  0  0  0  0
 12 23  1  0  0  0  0
  8 24  2  0  0  0  0
  7 25  1  0  0  0  0
 25 26  2  0  0  0  0
  4 26  1  0  0  0  0
 27 23  1  0  0  0  0
M  END
> <InChI>
InChI=1S/C24H28O3/c1-15-12-20-21(24(5,14-25)11-10-23(20,3)4)13-19(15)16(2)17-6-8-18(9-7-17)22(26)27/h6-9,12-13,25H,2,10-11,14H2,1,3-5H3,(H,26,27)

> <InChIKey>
WQIKLZAZUWMMCJ-UHFFFAOYSA-N

> <SMILES>
OC(=O)C1=CC=C(C(C2=CC=3C(CCC(C3C=C2C)(C)C)(C)CO)=C)C=C1

> <Synonyms>


> <PUBCHEM_CID>


> <Molecular_formula>
C24H28O3

> <Major_Isotope_Mass>
364.20384475599997

> <ALogP>
5.289400000000002

> <Lipinski_Violations>
1

> <Insecticide_Likeness_Violations>
0

> <Post_Em_Herbicide_Likeness_Violations>
0

> <Metabolite_ID>
BTM00003

> <Reaction>
Hydroxylation of methyl carbon adjacent to aliphatic ring

> <Reaction_ID>
BTMR0054

> <Enzyme(s)>
CYP2B6
CYP2C8
CYP2C9
CYP2C19
CYP2D6
CYP3A4

> <Biosystem>
HUMAN

> <Precursor_ID>
TEST0013_Bexarotene

> <Precursor_SMILES>
OC(=O)C1=CC=C(C(C2=CC=3C(CCC(C3C=C2C)(C)C)(C)C)=C)C=C1

> <Precursor_InChI>
InChI=1S/C24H28O2/c1-15-13-20-21(24(5,6)12-11-23(20,3)4)14-19(15)16(2)17-7-9-18(10-8-17)22(25)26/h7-10,13-14H,2,11-12H2,1,3-6H3,(H,25,26)

> <Precursor_InChIKey>
NAVMQTYZDKMPEU-UHFFFAOYSA-N

> <Precursor_ALogP>
6.3801

> <Precursor_Major_Isotope_Mass>
348.2089

$$$$
BTM00004
  CDK     08072417392D

 27 29  0  0  0  0  0  0  0  0999 V2000
  -10.3952   -0.7508    0.0000 O   0  0  0  0  0  0  0  0  0  0  0  0
   -9.0963   -1.5010    0.0000 C   0  0  0  0  0  0  0  0  0  0  0  0
   -9.0965   -3.0010    0.0000 O   0  0  0  0  0  0  0  0  0  0  0  0
   -7.7971   -0.7512    0.0000 C   0  0  0  0  0  0  0  0  0  0  0  0
   -7.7966    0.7496    0.0000 C   0  0  0  0  0  0  0  0  0  0  0  0
   -6.4971    1.5004    0.0000 C   0  0  0  0  0  0  0  0  0  0  0  0
   -5.1981    0.7504    0.0000 C   0  0  0  0  0  0  0  0  0  0  0  0
   -3.8989    1.5002    0.0000 C   0  0  0  0  0  0  0  0  0  0  0  0
   -2.6000    0.7500    0.0000 C   0  0  0  0  0  0  0  0  0  0  0  0
   -1.3000    1.5000    0.0000 C   0  0  0  0  0  0  0  0  0  0  0  0
    0.0000    0.7500    0.0000 C   0  0  0  0  0  0  0  0  0  0  0  0
    1.3000    1.5000    0.0000 C   0  0  0  0  0  0  0  0  0  0  0  0
    2.6000    0.7500    0.0000 C   0  0  0  0  0  0  0  0  0  0  0  0
    2.6000   -0.7500    0.0000 C   0  0  0  0  0  0  0  0  0  0  0  0
    1.3000   -1.5000    0.0000 C   0  0  0  0  0  0  0  0  0  0  0  0
    0.0000   -0.7500    0.0000 C   0  0  0  0  0  0  0  0  0  0  0  0
   -1.3000   -1.5000    0.0000 C   0  0  0  0  0  0  0  0  0  0  0  0
   -2.6000   -0.7500    0.0000 C   0  0  0  0  0  0  0  0  0  0  0  0
   -3.8989   -1.5002    0.0000 C   0  0  0  0  0  0  0  0  0  0  0  0
    0.3359   -2.6492    0.0000 C   0  0  0  0  0  0  0  0  0  0  0  0
    2.2641   -2.6492    0.0000 C   0  0  0  0  0  0  0  0  0  0  0  0
    2.2641    2.6492    0.0000 C   0  0  0  0  0  0  0  0  0  0  0  0
    0.3359    2.6492    0.0000 C   0  0  0  0  0  0  0  0  0  0  0  0
   -3.8987    3.0002    0.0000 C   0  0  0  0  0  0  0  0  0  0  0  0
   -5.1986   -0.7504    0.0000 C   0  0  0  0  0  0  0  0  0  0  0  0
   -6.4981   -1.5012    0.0000 C   0  0  0  0  0  0  0  0  0  0  0  0
    3.7413   -2.3889    0.0000 O   0  0  0  0  0  0  0  0  0  0  0  0
  1  2  1  0  0  0  0
  2  3  2  0  0  0  0
  2  4  1  0  0  0  0
  4  5  2  0  0  0  0
  5  6  1  0  0  0  0
  6  7  2  0  0  0  0
  7  8  1  0  0  0  0
  8  9  1  0  0  0  0
  9 10  2  0  0  0  0
 10 11  1  0  0  0  0
 11 12  1  0  0  0  0
 12 13  1  0  0  0  0
 13 14  1  0  0  0  0
 14 15  1  0  0  0  0
 15 16  1  0  0  0  0
 11 16  2  0  0  0  0
 16 17  1  0  0  0  0
 17 18  2  0  0  0  0
  9 18  1  0  0  0  0
 18 19  1  0  0  0  0
 15 20  1  0  0  0  0
 15 21  1  0  0  0  0
 12 22  1  0  0  0  0
 12 23  1  0  0  0  0
  8 24  2  0  0  0  0
  7 25  1  0  0  0  0
 25 26  2  0  0  0  0
  4 26  1  0  0  0  0
 27 21  1  0  0  0  0
M  END
> <InChI>
InChI=1S/C24H28O3/c1-15-12-21-20(23(3,4)10-11-24(21,5)14-25)13-19(15)16(2)17-6-8-18(9-7-17)22(26)27/h6-9,12-13,25H,2,10-11,14H2,1,3-5H3,(H,26,27)

> <InChIKey>
FITBBXCPCOQFSG-UHFFFAOYSA-N

> <SMILES>
OC(=O)C1=CC=C(C(C2=CC=3C(CCC(C3C=C2C)(C)CO)(C)C)=C)C=C1

> <Synonyms>


> <PUBCHEM_CID>


> <Molecular_formula>
C24H28O3

> <Major_Isotope_Mass>
364.20384475599997

> <ALogP>
5.289400000000002

> <Lipinski_Violations>
1

> <Insecticide_Likeness_Violations>
0

> <Post_Em_Herbicide_Likeness_Violations>
0

> <Metabolite_ID>
BTM00004

> <Reaction>
Hydroxylation of methyl carbon adjacent to aliphatic ring

> <Reaction_ID>
BTMR0054

> <Enzyme(s)>
CYP2B6
CYP2C8
CYP2C9
CYP2C19
CYP2D6
CYP3A4

> <Biosystem>
HUMAN

> <Precursor_ID>
TEST0013_Bexarotene

> <Precursor_SMILES>
OC(=O)C1=CC=C(C(C2=CC=3C(CCC(C3C=C2C)(C)C)(C)C)=C)C=C1

> <Precursor_InChI>
InChI=1S/C24H28O2/c1-15-13-20-21(24(5,6)12-11-23(20,3)4)14-19(15)16(2)17-7-9-18(10-8-17)22(25)26/h7-10,13-14H,2,11-12H2,1,3-6H3,(H,25,26)

> <Precursor_InChIKey>
NAVMQTYZDKMPEU-UHFFFAOYSA-N

> <Precursor_ALogP>
6.3801

> <Precursor_Major_Isotope_Mass>
348.2089

$$$$
