BTM00001
  CDK     08072417412D

 22 23  0  0  0  0  0  0  0  0999 V2000
   -0.3325    2.4400    0.0000 S   0  0  0  0  0  0  0  0  0  0  0  0
   -0.3300    0.9400    0.0000 C   0  0  0  0  0  0  0  0  0  0  0  0
    0.9700    0.1900    0.0000 C   0  0  0  0  0  0  0  0  0  0  0  0
    2.2689    0.9402    0.0000 N   0  0  0  0  0  0  0  0  0  0  0  0
    8.7642    0.1912    0.0000 C   0  0  0  0  0  0  0  0  0  0  0  0
    7.4651    0.9410    0.0000 C   0  0  0  0  0  0  0  0  0  0  0  0
    6.1662    0.1908    0.0000 N   0  0  0  0  0  0  0  0  0  0  0  0
    4.8670    0.9406    0.0000 C   0  0  0  0  0  0  0  0  0  0  0  0
    3.5681    0.1904    0.0000 C   0  0  0  0  0  0  0  0  0  0  0  0
    0.9700   -1.3100    0.0000 C   0  0  0  0  0  0  0  0  0  0  0  0
   -0.3300   -2.0600    0.0000 C   0  0  0  0  0  0  0  0  0  0  0  0
   -1.6200   -1.3100    0.0000 C   0  0  0  0  0  0  0  0  0  0  0  0
   -1.6200    0.1900    0.0000 C   0  0  0  0  0  0  0  0  0  0  0  0
   -1.6328    3.1878    0.0000 C   0  0  0  0  0  0  0  0  0  0  0  0
   -2.9314    2.4354    0.0000 C   0  0  0  0  0  0  0  0  0  0  0  0
   -4.2328    3.1831    0.0000 C   0  0  0  0  0  0  0  0  0  0  0  0
   -4.2356    4.6830    0.0000 C   0  0  0  0  0  0  0  0  0  0  0  0
   -2.9369    5.4354    0.0000 C   0  0  0  0  0  0  0  0  0  0  0  0
   -1.6356    4.6878    0.0000 C   0  0  0  0  0  0  0  0  0  0  0  0
   -5.5358    5.4309    0.0000 C   0  0  0  0  0  0  0  0  0  0  0  0
   -2.9287    0.9354    0.0000 C   0  0  0  0  0  0  0  0  0  0  0  0
   10.0631    0.9415    0.0000 O   0  0  0  0  0  0  0  0  0  0  0  0
  1  2  1  0  0  0  0
  2  3  1  0  0  0  0
  3  4  1  0  0  0  0
  5  6  1  0  0  0  0
  6  7  1  0  0  0  0
  7  8  1  0  0  0  0
  8  9  1  0  0  0  0
  4  9  1  0  0  0  0
  3 10  2  0  0  0  0
 10 11  1  0  0  0  0
 11 12  2  0  0  0  0
 12 13  1  0  0  0  0
  2 13  2  0  0  0  0
  1 14  1  0  0  0  0
 14 15  2  0  0  0  0
 15 16  1  0  0  0  0
 16 17  2  0  0  0  0
 17 18  1  0  0  0  0
 18 19  2  0  0  0  0
 14 19  1  0  0  0  0
 17 20  1  0  0  0  0
 15 21  1  0  0  0  0
  5 22  2  0  0  0  0
M  END
> <InChI>
InChI=1S/C18H22N2OS/c1-14-7-8-17(15(2)13-14)22-18-6-4-3-5-16(18)20-10-9-19-11-12-21/h3-8,12-13,19-20H,9-11H2,1-2H3

> <InChIKey>
HPOOTXOTYUKRDD-UHFFFAOYSA-N

> <SMILES>
S(C=1C(NCCNCC=O)=CC=CC1)C2=C(C=C(C=C2)C)C

> <Synonyms>


> <PUBCHEM_CID>


> <Molecular_formula>
C18H22N2OS

> <Major_Isotope_Mass>
314.145284324

> <ALogP>
4.0492

> <Lipinski_Violations>
0

> <Insecticide_Likeness_Violations>
0

> <Post_Em_Herbicide_Likeness_Violations>
0

> <Metabolite_ID>
BTM00001

> <Reaction>
N-Dealkylation of mixed tertiary amine

> <Reaction_ID>
BTMR1145

> <Enzyme(s)>
CYP1A2
CYP2A6
CYP2B6
CYP2C8
CYP2C9
CYP2C19
CYP2D6
CYP3A4

> <Biosystem>
HUMAN

> <Precursor_ID>
TEST0034_Vortioxetine

> <Precursor_SMILES>
S(C=1C(N2CCNCC2)=CC=CC1)C3=C(C=C(C=C3)C)C

> <Precursor_InChI>
InChI=1S/C18H22N2S/c1-14-7-8-17(15(2)13-14)21-18-6-4-3-5-16(18)20-11-9-19-10-12-20/h3-8,13,19H,9-12H2,1-2H3

> <Precursor_InChIKey>
YQNWZWMKLDQSAC-UHFFFAOYSA-N

> <Precursor_ALogP>
4.504399

> <Precursor_Major_Isotope_Mass>
298.1503

$$$$
BTM00002
  CDK     08072417412D

 22 24  0  0  0  0  0  0  0  0999 V2000
    2.9229    1.3234    0.0000 S   0  0  0  0  0  0  0  0  0  0  0  0
    2.9251   -0.1766    0.0000 C   0  0  0  0  0  0  0  0  0  0  0  0
    4.2250   -0.9268    0.0000 C   0  0  0  0  0  0  0  0  0  0  0  0
    5.5240   -0.1768    0.0000 N   0  0  0  0  0  0  0  0  0  0  0  0
    5.5236    1.3241    0.0000 C   0  0  0  0  0  0  0  0  0  0  0  0
    6.8226    2.0741    0.0000 C   0  0  0  0  0  0  0  0  0  0  0  0
    8.1221    1.3232    0.0000 N   0  0  0  0  0  0  0  0  0  0  0  0
    8.1226   -0.1776    0.0000 C   0  0  0  0  0  0  0  0  0  0  0  0
    6.8236   -0.9276    0.0000 C   0  0  0  0  0  0  0  0  0  0  0  0
    4.2248   -2.4268    0.0000 C   0  0  0  0  0  0  0  0  0  0  0  0
    2.9247   -3.1766    0.0000 C   0  0  0  0  0  0  0  0  0  0  0  0
    1.6348   -2.4264    0.0000 C   0  0  0  0  0  0  0  0  0  0  0  0
    1.6350   -0.9264    0.0000 C   0  0  0  0  0  0  0  0  0  0  0  0
    1.6227    2.0715    0.0000 C   0  0  0  0  0  0  0  0  0  0  0  0
    0.3239    1.3193    0.0000 C   0  0  0  0  0  0  0  0  0  0  0  0
   -0.9773    2.0671    0.0000 C   0  0  0  0  0  0  0  0  0  0  0  0
   -0.9798    3.5671    0.0000 C   0  0  0  0  0  0  0  0  0  0  0  0
    0.3189    4.3193    0.0000 C   0  0  0  0  0  0  0  0  0  0  0  0
    1.6202    3.5715    0.0000 C   0  0  0  0  0  0  0  0  0  0  0  0
   -2.2800    4.3151    0.0000 C   0  0  0  0  0  0  0  0  0  0  0  0
    0.3265   -0.1807    0.0000 C   0  0  0  0  0  0  0  0  0  0  0  0
    4.2208    2.0754    0.0000 O   0  0  0  0  0  0  0  0  0  0  0  0
  1  2  1  0  0  0  0
  2  3  1  0  0  0  0
  3  4  1  0  0  0  0
  4  5  1  0  0  0  0
  5  6  1  0  0  0  0
  6  7  1  0  0  0  0
  7  8  1  0  0  0  0
  8  9  1  0  0  0  0
  4  9  1  0  0  0  0
  3 10  2  0  0  0  0
 10 11  1  0  0  0  0
 11 12  2  0  0  0  0
 12 13  1  0  0  0  0
  2 13  2  0  0  0  0
  1 14  1  0  0  0  0
 14 15  2  0  0  0  0
 15 16  1  0  0  0  0
 16 17  2  0  0  0  0
 17 18  1  0  0  0  0
 18 19  2  0  0  0  0
 14 19  1  0  0  0  0
 17 20  1  0  0  0  0
 15 21  1  0  0  0  0
  1 22  2  0  0  0  0
M  END
> <InChI>
InChI=1S/C18H22N2OS/c1-14-7-8-17(15(2)13-14)22(21)18-6-4-3-5-16(18)20-11-9-19-10-12-20/h3-8,13,19H,9-12H2,1-2H3

> <InChIKey>
QMCUMUZLZIXOII-UHFFFAOYSA-N

> <SMILES>
S(C=1C(N2CCNCC2)=CC=CC1)(C3=C(C=C(C=C3)C)C)=O

> <Synonyms>


> <PUBCHEM_CID>


> <Molecular_formula>
C18H22N2OS

> <Major_Isotope_Mass>
314.145284324

> <ALogP>
3.392599999999998

> <Lipinski_Violations>
0

> <Insecticide_Likeness_Violations>
0

> <Post_Em_Herbicide_Likeness_Violations>
0

> <Metabolite_ID>
BTM00002

> <Reaction>
S-Oxidation of diarylthioether to sulfoxide

> <Reaction_ID>
BTMR0059

> <Enzyme(s)>
CYP1A2
CYP2B6
CYP2D6
CYP3A4

> <Biosystem>
HUMAN

> <Precursor_ID>
TEST0034_Vortioxetine

> <Precursor_SMILES>
S(C=1C(N2CCNCC2)=CC=CC1)C3=C(C=C(C=C3)C)C

> <Precursor_InChI>
InChI=1S/C18H22N2S/c1-14-7-8-17(15(2)13-14)21-18-6-4-3-5-16(18)20-11-9-19-10-12-20/h3-8,13,19H,9-12H2,1-2H3

> <Precursor_InChIKey>
YQNWZWMKLDQSAC-UHFFFAOYSA-N

> <Precursor_ALogP>
4.504399

> <Precursor_Major_Isotope_Mass>
298.1503

$$$$
BTM00003
  CDK     08072417412D

 22 24  0  0  0  0  0  0  0  0999 V2000
    3.5683    2.4414    0.0000 S   0  0  0  0  0  0  0  0  0  0  0  0
    3.5706    0.9414    0.0000 C   0  0  0  0  0  0  0  0  0  0  0  0
    4.8705    0.1912    0.0000 C   0  0  0  0  0  0  0  0  0  0  0  0
    6.1695    0.9412    0.0000 N   0  0  0  0  0  0  0  0  0  0  0  0
    6.1690    2.4421    0.0000 C   0  0  0  0  0  0  0  0  0  0  0  0
    7.4681    3.1921    0.0000 C   0  0  0  0  0  0  0  0  0  0  0  0
    8.7676    2.4412    0.0000 N   0  0  0  0  0  0  0  0  0  0  0  0
    8.7681    0.9404    0.0000 C   0  0  0  0  0  0  0  0  0  0  0  0
    7.4690    0.1904    0.0000 C   0  0  0  0  0  0  0  0  0  0  0  0
    4.8703   -1.3088    0.0000 C   0  0  0  0  0  0  0  0  0  0  0  0
    3.5701   -2.0586    0.0000 C   0  0  0  0  0  0  0  0  0  0  0  0
    2.2803   -1.3084    0.0000 C   0  0  0  0  0  0  0  0  0  0  0  0
    2.2805    0.1916    0.0000 C   0  0  0  0  0  0  0  0  0  0  0  0
    2.2682    3.1895    0.0000 C   0  0  0  0  0  0  0  0  0  0  0  0
    0.9694    2.4373    0.0000 C   0  0  0  0  0  0  0  0  0  0  0  0
   -0.3318    3.1851    0.0000 C   0  0  0  0  0  0  0  0  0  0  0  0
   -0.3343    4.6851    0.0000 C   0  0  0  0  0  0  0  0  0  0  0  0
    0.9644    5.4373    0.0000 C   0  0  0  0  0  0  0  0  0  0  0  0
    2.2657    4.6895    0.0000 C   0  0  0  0  0  0  0  0  0  0  0  0
   -1.6345    5.4331    0.0000 C   0  0  0  0  0  0  0  0  0  0  0  0
    0.9719    0.9373    0.0000 C   0  0  0  0  0  0  0  0  0  0  0  0
   -0.3258    0.1851    0.0000 O   0  0  0  0  0  0  0  0  0  0  0  0
  1  2  1  0  0  0  0
  2  3  1  0  0  0  0
  3  4  1  0  0  0  0
  4  5  1  0  0  0  0
  5  6  1  0  0  0  0
  6  7  1  0  0  0  0
  7  8  1  0  0  0  0
  8  9  1  0  0  0  0
  4  9  1  0  0  0  0
  3 10  2  0  0  0  0
 10 11  1  0  0  0  0
 11 12  2  0  0  0  0
 12 13  1  0  0  0  0
  2 13  2  0  0  0  0
  1 14  1  0  0  0  0
 14 15  2  0  0  0  0
 15 16  1  0  0  0  0
 16 17  2  0  0  0  0
 17 18  1  0  0  0  0
 18 19  2  0  0  0  0
 14 19  1  0  0  0  0
 17 20  1  0  0  0  0
 15 21  1  0  0  0  0
 22 21  1  0  0  0  0
M  END
> <InChI>
InChI=1S/C18H22N2OS/c1-14-6-7-17(15(12-14)13-21)22-18-5-3-2-4-16(18)20-10-8-19-9-11-20/h2-7,12,19,21H,8-11,13H2,1H3

> <InChIKey>
CAYISYDNCUICBJ-UHFFFAOYSA-N

> <SMILES>
S(C=1C(N2CCNCC2)=CC=CC1)C3=C(C=C(C=C3)C)CO

> <Synonyms>


> <PUBCHEM_CID>


> <Molecular_formula>
C18H22N2OS

> <Major_Isotope_Mass>
314.145284324

> <ALogP>
3.4137000000000013

> <Lipinski_Violations>
0

> <Insecticide_Likeness_Violations>
0

> <Post_Em_Herbicide_Likeness_Violations>
0

> <Metabolite_ID>
BTM00003

> <Reaction>
Aliphatic hydroxylation of methyl carbon adjacent to aromatic ring

> <Reaction_ID>
BTMR1058

> <Enzyme(s)>
CYP1A2
CYP2A6
CYP2B6
CYP2C8
CYP2C9
CYP2C19
CYP2D6
CYP2E1
CYP3A4

> <Biosystem>
HUMAN

> <Precursor_ID>
TEST0034_Vortioxetine

> <Precursor_SMILES>
S(C=1C(N2CCNCC2)=CC=CC1)C3=C(C=C(C=C3)C)C

> <Precursor_InChI>
InChI=1S/C18H22N2S/c1-14-7-8-17(15(2)13-14)21-18-6-4-3-5-16(18)20-11-9-19-10-12-20/h3-8,13,19H,9-12H2,1-2H3

> <Precursor_InChIKey>
YQNWZWMKLDQSAC-UHFFFAOYSA-N

> <Precursor_ALogP>
4.504399

> <Precursor_Major_Isotope_Mass>
298.1503

$$$$
BTM00004
  CDK     08072417412D

 22 24  0  0  0  0  0  0  0  0999 V2000
    5.1925    1.5099    0.0000 S   0  0  0  0  0  0  0  0  0  0  0  0
    6.4927    0.7619    0.0000 C   0  0  0  0  0  0  0  0  0  0  0  0
    7.7923    1.5125    0.0000 C   0  0  0  0  0  0  0  0  0  0  0  0
    7.7923    3.0125    0.0000 N   0  0  0  0  0  0  0  0  0  0  0  0
    6.4923    3.7625    0.0000 C   0  0  0  0  0  0  0  0  0  0  0  0
    6.4923    5.2625    0.0000 C   0  0  0  0  0  0  0  0  0  0  0  0
    7.7923    6.0125    0.0000 N   0  0  0  0  0  0  0  0  0  0  0  0
    9.0923    5.2625    0.0000 C   0  0  0  0  0  0  0  0  0  0  0  0
    9.0923    3.7625    0.0000 C   0  0  0  0  0  0  0  0  0  0  0  0
    9.0912    0.7623    0.0000 C   0  0  0  0  0  0  0  0  0  0  0  0
    9.0905   -0.7385    0.0000 C   0  0  0  0  0  0  0  0  0  0  0  0
    7.7959   -1.4805    0.0000 C   0  0  0  0  0  0  0  0  0  0  0  0
    6.4969   -0.7303    0.0000 C   0  0  0  0  0  0  0  0  0  0  0  0
    3.8946    0.7580    0.0000 C   0  0  0  0  0  0  0  0  0  0  0  0
    3.8966   -0.7428    0.0000 C   0  0  0  0  0  0  0  0  0  0  0  0
    2.5984   -1.4959    0.0000 C   0  0  0  0  0  0  0  0  0  0  0  0
    1.2981   -0.7480    0.0000 C   0  0  0  0  0  0  0  0  0  0  0  0
    1.2960    0.7528    0.0000 C   0  0  0  0  0  0  0  0  0  0  0  0
    2.5943    1.5058    0.0000 C   0  0  0  0  0  0  0  0  0  0  0  0
    0.0002   -1.5000    0.0000 C   0  0  0  0  0  0  0  0  0  0  0  0
    5.1969   -1.4907    0.0000 C   0  0  0  0  0  0  0  0  0  0  0  0
   -1.3000   -0.7520    0.0000 O   0  0  0  0  0  0  0  0  0  0  0  0
  1  2  1  0  0  0  0
  2  3  1  0  0  0  0
  3  4  1  0  0  0  0
  4  5  1  0  0  0  0
  5  6  1  0  0  0  0
  6  7  1  0  0  0  0
  7  8  1  0  0  0  0
  8  9  1  0  0  0  0
  4  9  1  0  0  0  0
  3 10  2  0  0  0  0
 10 11  1  0  0  0  0
 11 12  2  0  0  0  0
 12 13  1  0  0  0  0
  2 13  2  0  0  0  0
  1 14  1  0  0  0  0
 14 15  2  0  0  0  0
 15 16  1  0  0  0  0
 16 17  2  0  0  0  0
 17 18  1  0  0  0  0
 18 19  2  0  0  0  0
 14 19  1  0  0  0  0
 17 20  1  0  0  0  0
 15 21  1  0  0  0  0
 22 20  1  0  0  0  0
M  END
> <InChI>
InChI=1S/C18H22N2OS/c1-14-12-15(13-21)6-7-17(14)22-18-5-3-2-4-16(18)20-10-8-19-9-11-20/h2-7,12,19,21H,8-11,13H2,1H3

> <InChIKey>
INVFGIUFVDSKAT-UHFFFAOYSA-N

> <SMILES>
S(C=1C(N2CCNCC2)=CC=CC1)C3=C(C=C(C=C3)CO)C

> <Synonyms>


> <PUBCHEM_CID>


> <Molecular_formula>
C18H22N2OS

> <Major_Isotope_Mass>
314.145284324

> <ALogP>
3.4137000000000013

> <Lipinski_Violations>
0

> <Insecticide_Likeness_Violations>
0

> <Post_Em_Herbicide_Likeness_Violations>
0

> <Metabolite_ID>
BTM00004

> <Reaction>
Aliphatic hydroxylation of methyl carbon adjacent to aromatic ring

> <Reaction_ID>
BTMR1058

> <Enzyme(s)>
CYP1A2
CYP2A6
CYP2B6
CYP2C8
CYP2C9
CYP2C19
CYP2D6
CYP2E1
CYP3A4

> <Biosystem>
HUMAN

> <Precursor_ID>
TEST0034_Vortioxetine

> <Precursor_SMILES>
S(C=1C(N2CCNCC2)=CC=CC1)C3=C(C=C(C=C3)C)C

> <Precursor_InChI>
InChI=1S/C18H22N2S/c1-14-7-8-17(15(2)13-14)21-18-6-4-3-5-16(18)20-11-9-19-10-12-20/h3-8,13,19H,9-12H2,1-2H3

> <Precursor_InChIKey>
YQNWZWMKLDQSAC-UHFFFAOYSA-N

> <Precursor_ALogP>
4.504399

> <Precursor_Major_Isotope_Mass>
298.1503

$$$$
BTM00005
  CDK     08072417412D

 22 24  0  0  0  0  0  0  0  0999 V2000
    3.7127    0.6528    0.0000 S   0  0  0  0  0  0  0  0  0  0  0  0
    2.4125    1.4007    0.0000 C   0  0  0  0  0  0  0  0  0  0  0  0
    1.1129    0.6499    0.0000 C   0  0  0  0  0  0  0  0  0  0  0  0
    1.1131   -0.8501    0.0000 N   0  3  0  0  0  0  0  0  0  0  0  0
    2.5910   -0.5890    0.0000 C   0  0  0  0  0  0  0  0  0  0  0  0
    3.5552   -1.7381    0.0000 C   0  0  0  0  0  0  0  0  0  0  0  0
    3.0414   -3.1482    0.0000 N   0  0  0  0  0  0  0  0  0  0  0  0
    1.5635   -3.4093    0.0000 C   0  0  0  0  0  0  0  0  0  0  0  0
    0.5993   -2.2602    0.0000 C   0  0  0  0  0  0  0  0  0  0  0  0
   -0.1861    1.4000    0.0000 C   0  0  0  0  0  0  0  0  0  0  0  0
   -0.1855    2.9008    0.0000 C   0  0  0  0  0  0  0  0  0  0  0  0
    1.1090    3.6429    0.0000 C   0  0  0  0  0  0  0  0  0  0  0  0
    2.4080    2.8928    0.0000 C   0  0  0  0  0  0  0  0  0  0  0  0
    5.0106    1.4049    0.0000 C   0  0  0  0  0  0  0  0  0  0  0  0
    5.0084    2.9057    0.0000 C   0  0  0  0  0  0  0  0  0  0  0  0
    6.3065    3.6589    0.0000 C   0  0  0  0  0  0  0  0  0  0  0  0
    7.6069    2.9112    0.0000 C   0  0  0  0  0  0  0  0  0  0  0  0
    7.6091    1.4104    0.0000 C   0  0  0  0  0  0  0  0  0  0  0  0
    6.3109    0.6572    0.0000 C   0  0  0  0  0  0  0  0  0  0  0  0
    8.9047    3.6633    0.0000 C   0  0  0  0  0  0  0  0  0  0  0  0
    3.7080    3.6534    0.0000 C   0  0  0  0  0  0  0  0  0  0  0  0
   -0.3641   -0.5895    0.0000 O   0  5  0  0  0  0  0  0  0  0  0  0
  1  2  1  0  0  0  0
  2  3  1  0  0  0  0
  3  4  1  0  0  0  0
  4  5  1  0  0  0  0
  5  6  1  0  0  0  0
  6  7  1  0  0  0  0
  7  8  1  0  0  0  0
  8  9  1  0  0  0  0
  4  9  1  0  0  0  0
  3 10  2  0  0  0  0
 10 11  1  0  0  0  0
 11 12  2  0  0  0  0
 12 13  1  0  0  0  0
  2 13  2  0  0  0  0
  1 14  1  0  0  0  0
 14 15  2  0  0  0  0
 15 16  1  0  0  0  0
 16 17  2  0  0  0  0
 17 18  1  0  0  0  0
 18 19  2  0  0  0  0
 14 19  1  0  0  0  0
 17 20  1  0  0  0  0
 15 21  1  0  0  0  0
  4 22  1  0  0  0  0
M  CHG  1   4   1
M  CHG  1  22  -1
M  END
> <InChI>
InChI=1S/C18H22N2OS/c1-14-7-8-17(15(2)13-14)22-18-6-4-3-5-16(18)20(21)11-9-19-10-12-20/h3-8,13,19H,9-12H2,1-2H3

> <InChIKey>
XDLJSGUEBNLLQN-UHFFFAOYSA-N

> <SMILES>
S(C=1C([N+]2(CCNCC2)[O-])=CC=CC1)C3=C(C=C(C=C3)C)C

> <Synonyms>


> <PUBCHEM_CID>


> <Molecular_formula>
C18H22N2OS

> <Major_Isotope_Mass>
314.145284324

> <ALogP>
4.003799999999998

> <Lipinski_Violations>
0

> <Insecticide_Likeness_Violations>
0

> <Post_Em_Herbicide_Likeness_Violations>
0

> <Metabolite_ID>
BTM00005

> <Reaction>
N-Oxidation of alicyclic tertiary amine

> <Reaction_ID>
BTMR1099

> <Enzyme(s)>
CYP1A2
CYP2C8
CYP2C19
CYP2D6
CYP3A4

> <Biosystem>
HUMAN

> <Precursor_ID>
TEST0034_Vortioxetine

> <Precursor_SMILES>
S(C=1C(N2CCNCC2)=CC=CC1)C3=C(C=C(C=C3)C)C

> <Precursor_InChI>
InChI=1S/C18H22N2S/c1-14-7-8-17(15(2)13-14)21-18-6-4-3-5-16(18)20-11-9-19-10-12-20/h3-8,13,19H,9-12H2,1-2H3

> <Precursor_InChIKey>
YQNWZWMKLDQSAC-UHFFFAOYSA-N

> <Precursor_ALogP>
4.504399

> <Precursor_Major_Isotope_Mass>
298.1503

$$$$
BTM00006
  CDK     08072417412D

 22 24  0  0  0  0  0  0  0  0999 V2000
    3.5706    2.4453    0.0000 S   0  0  0  0  0  0  0  0  0  0  0  0
    3.5729    0.9453    0.0000 C   0  0  0  0  0  0  0  0  0  0  0  0
    4.8727    0.1951    0.0000 C   0  0  0  0  0  0  0  0  0  0  0  0
    6.1718    0.9451    0.0000 N   0  0  0  0  0  0  0  0  0  0  0  0
    6.1713    2.4460    0.0000 C   0  0  0  0  0  0  0  0  0  0  0  0
    7.4703    3.1960    0.0000 C   0  0  0  0  0  0  0  0  0  0  0  0
    8.7698    2.4451    0.0000 N   0  0  0  0  0  0  0  0  0  0  0  0
    8.7703    0.9443    0.0000 C   0  0  0  0  0  0  0  0  0  0  0  0
    7.4713    0.1943    0.0000 C   0  0  0  0  0  0  0  0  0  0  0  0
    4.8725   -1.3049    0.0000 C   0  0  0  0  0  0  0  0  0  0  0  0
    3.5724   -2.0547    0.0000 C   0  0  0  0  0  0  0  0  0  0  0  0
    2.2825   -1.3045    0.0000 C   0  0  0  0  0  0  0  0  0  0  0  0
    2.2827    0.1955    0.0000 C   0  0  0  0  0  0  0  0  0  0  0  0
    2.2704    3.1934    0.0000 C   0  0  0  0  0  0  0  0  0  0  0  0
    0.9717    2.4412    0.0000 C   0  0  0  0  0  0  0  0  0  0  0  0
   -0.3296    3.1890    0.0000 C   0  0  0  0  0  0  0  0  0  0  0  0
   -0.3321    4.6890    0.0000 C   0  0  0  0  0  0  0  0  0  0  0  0
    0.9666    5.4412    0.0000 C   0  0  0  0  0  0  0  0  0  0  0  0
    2.2679    4.6934    0.0000 C   0  0  0  0  0  0  0  0  0  0  0  0
   -1.6323    5.4370    0.0000 C   0  0  0  0  0  0  0  0  0  0  0  0
    0.9742    0.9412    0.0000 C   0  0  0  0  0  0  0  0  0  0  0  0
   -1.6272    2.4366    0.0000 O   0  0  0  0  0  0  0  0  0  0  0  0
  1  2  1  0  0  0  0
  2  3  1  0  0  0  0
  3  4  1  0  0  0  0
  4  5  1  0  0  0  0
  5  6  1  0  0  0  0
  6  7  1  0  0  0  0
  7  8  1  0  0  0  0
  8  9  1  0  0  0  0
  4  9  1  0  0  0  0
  3 10  2  0  0  0  0
 10 11  1  0  0  0  0
 11 12  2  0  0  0  0
 12 13  1  0  0  0  0
  2 13  2  0  0  0  0
  1 14  1  0  0  0  0
 14 15  2  0  0  0  0
 15 16  1  0  0  0  0
 16 17  2  0  0  0  0
 17 18  1  0  0  0  0
 18 19  2  0  0  0  0
 14 19  1  0  0  0  0
 17 20  1  0  0  0  0
 15 21  1  0  0  0  0
 22 16  1  0  0  0  0
M  END
> <InChI>
InChI=1S/C18H22N2OS/c1-13-7-8-16(14(2)18(13)21)22-17-6-4-3-5-15(17)20-11-9-19-10-12-20/h3-8,19,21H,9-12H2,1-2H3

> <InChIKey>
WOOJWBVLXDURKC-UHFFFAOYSA-N

> <SMILES>
S(C=1C(N2CCNCC2)=CC=CC1)C3=C(C(=C(C=C3)C)O)C

> <Synonyms>


> <PUBCHEM_CID>


> <Molecular_formula>
C18H22N2OS

> <Major_Isotope_Mass>
314.145284324

> <ALogP>
4.237000000000002

> <Lipinski_Violations>
0

> <Insecticide_Likeness_Violations>
0

> <Post_Em_Herbicide_Likeness_Violations>
0

> <Metabolite_ID>
BTM00006

> <Reaction>
Hydroxylation of benzene on carbon ortho to electron donating group

> <Reaction_ID>
BTMR1045

> <Enzyme(s)>
CYP1A2
CYP2C8
CYP2C9
CYP2C19
CYP2D6
CYP3A4

> <Biosystem>
HUMAN

> <Precursor_ID>
TEST0034_Vortioxetine

> <Precursor_SMILES>
S(C=1C(N2CCNCC2)=CC=CC1)C3=C(C=C(C=C3)C)C

> <Precursor_InChI>
InChI=1S/C18H22N2S/c1-14-7-8-17(15(2)13-14)21-18-6-4-3-5-16(18)20-11-9-19-10-12-20/h3-8,13,19H,9-12H2,1-2H3

> <Precursor_InChIKey>
YQNWZWMKLDQSAC-UHFFFAOYSA-N

> <Precursor_ALogP>
4.504399

> <Precursor_Major_Isotope_Mass>
298.1503

$$$$
BTM00007
  CDK     08072417412D

 22 24  0  0  0  0  0  0  0  0999 V2000
    2.5998    3.0026    0.0000 S   0  0  0  0  0  0  0  0  0  0  0  0
    1.2996    3.7506    0.0000 C   0  0  0  0  0  0  0  0  0  0  0  0
    0.0000    3.0000    0.0000 C   0  0  0  0  0  0  0  0  0  0  0  0
    0.0000    1.5000    0.0000 N   0  0  0  0  0  0  0  0  0  0  0  0
    1.3000    0.7500    0.0000 C   0  0  0  0  0  0  0  0  0  0  0  0
    1.3000   -0.7500    0.0000 C   0  0  0  0  0  0  0  0  0  0  0  0
    0.0000   -1.5000    0.0000 N   0  0  0  0  0  0  0  0  0  0  0  0
   -1.3000   -0.7500    0.0000 C   0  0  0  0  0  0  0  0  0  0  0  0
   -1.3000    0.7500    0.0000 C   0  0  0  0  0  0  0  0  0  0  0  0
   -1.2989    3.7502    0.0000 C   0  0  0  0  0  0  0  0  0  0  0  0
   -1.2982    5.2510    0.0000 C   0  0  0  0  0  0  0  0  0  0  0  0
   -0.0036    5.9930    0.0000 C   0  0  0  0  0  0  0  0  0  0  0  0
    1.2954    5.2428    0.0000 C   0  0  0  0  0  0  0  0  0  0  0  0
    3.8977    3.7546    0.0000 C   0  0  0  0  0  0  0  0  0  0  0  0
    3.8957    5.2554    0.0000 C   0  0  0  0  0  0  0  0  0  0  0  0
    5.1939    6.0084    0.0000 C   0  0  0  0  0  0  0  0  0  0  0  0
    6.4942    5.2606    0.0000 C   0  0  0  0  0  0  0  0  0  0  0  0
    6.4963    3.7597    0.0000 C   0  0  0  0  0  0  0  0  0  0  0  0
    5.1980    3.0067    0.0000 C   0  0  0  0  0  0  0  0  0  0  0  0
    7.7921    6.0125    0.0000 C   0  0  0  0  0  0  0  0  0  0  0  0
    2.5954    6.0032    0.0000 C   0  0  0  0  0  0  0  0  0  0  0  0
    7.7966    3.0119    0.0000 O   0  0  0  0  0  0  0  0  0  0  0  0
  1  2  1  0  0  0  0
  2  3  1  0  0  0  0
  3  4  1  0  0  0  0
  4  5  1  0  0  0  0
  5  6  1  0  0  0  0
  6  7  1  0  0  0  0
  7  8  1  0  0  0  0
  8  9  1  0  0  0  0
  4  9  1  0  0  0  0
  3 10  2  0  0  0  0
 10 11  1  0  0  0  0
 11 12  2  0  0  0  0
 12 13  1  0  0  0  0
  2 13  2  0  0  0  0
  1 14  1  0  0  0  0
 14 15  2  0  0  0  0
 15 16  1  0  0  0  0
 16 17  2  0  0  0  0
 17 18  1  0  0  0  0
 18 19  2  0  0  0  0
 14 19  1  0  0  0  0
 17 20  1  0  0  0  0
 15 21  1  0  0  0  0
 22 18  1  0  0  0  0
M  END
> <InChI>
InChI=1S/C18H22N2OS/c1-13-11-14(2)18(12-16(13)21)22-17-6-4-3-5-15(17)20-9-7-19-8-10-20/h3-6,11-12,19,21H,7-10H2,1-2H3

> <InChIKey>
XUHBPHFZTYZPHK-UHFFFAOYSA-N

> <SMILES>
S(C=1C(N2CCNCC2)=CC=CC1)C3=C(C=C(C(=C3)O)C)C

> <Synonyms>


> <PUBCHEM_CID>


> <Molecular_formula>
C18H22N2OS

> <Major_Isotope_Mass>
314.145284324

> <ALogP>
4.237000000000002

> <Lipinski_Violations>
0

> <Insecticide_Likeness_Violations>
0

> <Post_Em_Herbicide_Likeness_Violations>
0

> <Metabolite_ID>
BTM00007

> <Reaction>
Hydroxylation of benzene on carbon ortho to electron donating group

> <Reaction_ID>
BTMR1045

> <Enzyme(s)>
CYP1A2
CYP2C8
CYP2C9
CYP2C19
CYP2D6
CYP3A4

> <Biosystem>
HUMAN

> <Precursor_ID>
TEST0034_Vortioxetine

> <Precursor_SMILES>
S(C=1C(N2CCNCC2)=CC=CC1)C3=C(C=C(C=C3)C)C

> <Precursor_InChI>
InChI=1S/C18H22N2S/c1-14-7-8-17(15(2)13-14)21-18-6-4-3-5-16(18)20-11-9-19-10-12-20/h3-8,13,19H,9-12H2,1-2H3

> <Precursor_InChIKey>
YQNWZWMKLDQSAC-UHFFFAOYSA-N

> <Precursor_ALogP>
4.504399

> <Precursor_Major_Isotope_Mass>
298.1503

$$$$
BTM00008
  CDK     08072417412D

 22 24  0  0  0  0  0  0  0  0999 V2000
    2.5998    3.0026    0.0000 S   0  0  0  0  0  0  0  0  0  0  0  0
    1.2996    3.7506    0.0000 C   0  0  0  0  0  0  0  0  0  0  0  0
    0.0000    3.0000    0.0000 C   0  0  0  0  0  0  0  0  0  0  0  0
    0.0000    1.5000    0.0000 N   0  0  0  0  0  0  0  0  0  0  0  0
    1.3000    0.7500    0.0000 C   0  0  0  0  0  0  0  0  0  0  0  0
    1.3000   -0.7500    0.0000 C   0  0  0  0  0  0  0  0  0  0  0  0
   -0.0000   -1.5000    0.0000 N   0  0  0  0  0  0  0  0  0  0  0  0
   -1.3000   -0.7500    0.0000 C   0  0  0  0  0  0  0  0  0  0  0  0
   -1.3000    0.7500    0.0000 C   0  0  0  0  0  0  0  0  0  0  0  0
   -1.2989    3.7502    0.0000 C   0  0  0  0  0  0  0  0  0  0  0  0
   -1.2982    5.2510    0.0000 C   0  0  0  0  0  0  0  0  0  0  0  0
   -0.0036    5.9930    0.0000 C   0  0  0  0  0  0  0  0  0  0  0  0
    1.2954    5.2428    0.0000 C   0  0  0  0  0  0  0  0  0  0  0  0
    3.8977    3.7546    0.0000 C   0  0  0  0  0  0  0  0  0  0  0  0
    3.8957    5.2554    0.0000 C   0  0  0  0  0  0  0  0  0  0  0  0
    5.1939    6.0084    0.0000 C   0  0  0  0  0  0  0  0  0  0  0  0
    6.4942    5.2606    0.0000 C   0  0  0  0  0  0  0  0  0  0  0  0
    6.4963    3.7597    0.0000 C   0  0  0  0  0  0  0  0  0  0  0  0
    5.1980    3.0067    0.0000 C   0  0  0  0  0  0  0  0  0  0  0  0
    7.7921    6.0125    0.0000 C   0  0  0  0  0  0  0  0  0  0  0  0
    2.5954    6.0032    0.0000 C   0  0  0  0  0  0  0  0  0  0  0  0
    2.5989    1.5002    0.0000 O   0  0  0  0  0  0  0  0  0  0  0  0
  1  2  1  0  0  0  0
  2  3  1  0  0  0  0
  3  4  1  0  0  0  0
  4  5  1  0  0  0  0
  5  6  1  0  0  0  0
  6  7  1  0  0  0  0
  7  8  1  0  0  0  0
  8  9  1  0  0  0  0
  4  9  1  0  0  0  0
  3 10  2  0  0  0  0
 10 11  1  0  0  0  0
 11 12  2  0  0  0  0
 12 13  1  0  0  0  0
  2 13  2  0  0  0  0
  1 14  1  0  0  0  0
 14 15  2  0  0  0  0
 15 16  1  0  0  0  0
 16 17  2  0  0  0  0
 17 18  1  0  0  0  0
 18 19  2  0  0  0  0
 14 19  1  0  0  0  0
 17 20  1  0  0  0  0
 15 21  1  0  0  0  0
 22  5  1  0  0  0  0
M  END
> <InChI>
InChI=1S/C18H22N2OS/c1-13-7-8-16(14(2)11-13)22-17-6-4-3-5-15(17)20-10-9-19-12-18(20)21/h3-8,11,18-19,21H,9-10,12H2,1-2H3

> <InChIKey>
GEXDBWURZOPORN-UHFFFAOYSA-N

> <SMILES>
S(C=1C(N2C(CNCC2)O)=CC=CC1)C3=C(C=C(C=C3)C)C

> <Synonyms>


> <PUBCHEM_CID>


> <Molecular_formula>
C18H22N2OS

> <Major_Isotope_Mass>
314.145284324

> <ALogP>
4.164699999999998

> <Lipinski_Violations>
0

> <Insecticide_Likeness_Violations>
0

> <Post_Em_Herbicide_Likeness_Violations>
0

> <Metabolite_ID>
BTM00008

> <Reaction>
Hydroxylation of heteroalicyclic secondary carbon

> <Reaction_ID>
BTMR1070

> <Enzyme(s)>
CYP1A2
CYP2A6
CYP2C9
CYP2D6
CYP3A4

> <Biosystem>
HUMAN

> <Precursor_ID>
TEST0034_Vortioxetine

> <Precursor_SMILES>
S(C=1C(N2CCNCC2)=CC=CC1)C3=C(C=C(C=C3)C)C

> <Precursor_InChI>
InChI=1S/C18H22N2S/c1-14-7-8-17(15(2)13-14)21-18-6-4-3-5-16(18)20-11-9-19-10-12-20/h3-8,13,19H,9-12H2,1-2H3

> <Precursor_InChIKey>
YQNWZWMKLDQSAC-UHFFFAOYSA-N

> <Precursor_ALogP>
4.504399

> <Precursor_Major_Isotope_Mass>
298.1503

$$$$
BTM00009
  CDK     08072417412D

 22 24  0  0  0  0  0  0  0  0999 V2000
    3.8923    1.5097    0.0000 S   0  0  0  0  0  0  0  0  0  0  0  0
    5.1925    0.7617    0.0000 C   0  0  0  0  0  0  0  0  0  0  0  0
    6.4921    1.5123    0.0000 C   0  0  0  0  0  0  0  0  0  0  0  0
    6.4921    3.0123    0.0000 N   0  0  0  0  0  0  0  0  0  0  0  0
    5.1921    3.7623    0.0000 C   0  0  0  0  0  0  0  0  0  0  0  0
    5.1921    5.2623    0.0000 C   0  0  0  0  0  0  0  0  0  0  0  0
    6.4921    6.0123    0.0000 N   0  0  0  0  0  0  0  0  0  0  0  0
    7.7921    5.2623    0.0000 C   0  0  0  0  0  0  0  0  0  0  0  0
    7.7921    3.7623    0.0000 C   0  0  0  0  0  0  0  0  0  0  0  0
    7.7911    0.7621    0.0000 C   0  0  0  0  0  0  0  0  0  0  0  0
    7.7903   -0.7387    0.0000 C   0  0  0  0  0  0  0  0  0  0  0  0
    6.4957   -1.4807    0.0000 C   0  0  0  0  0  0  0  0  0  0  0  0
    5.1968   -0.7305    0.0000 C   0  0  0  0  0  0  0  0  0  0  0  0
    2.5944    0.7578    0.0000 C   0  0  0  0  0  0  0  0  0  0  0  0
    2.5965   -0.7431    0.0000 C   0  0  0  0  0  0  0  0  0  0  0  0
    1.2982   -1.4961    0.0000 C   0  0  0  0  0  0  0  0  0  0  0  0
   -0.0021   -0.7482    0.0000 C   0  0  0  0  0  0  0  0  0  0  0  0
   -0.0041    0.7526    0.0000 C   0  0  0  0  0  0  0  0  0  0  0  0
    1.2941    1.5056    0.0000 C   0  0  0  0  0  0  0  0  0  0  0  0
   -1.3000   -1.5002    0.0000 C   0  0  0  0  0  0  0  0  0  0  0  0
    3.8967   -1.4909    0.0000 C   0  0  0  0  0  0  0  0  0  0  0  0
    3.8932    6.0125    0.0000 O   0  0  0  0  0  0  0  0  0  0  0  0
  1  2  1  0  0  0  0
  2  3  1  0  0  0  0
  3  4  1  0  0  0  0
  4  5  1  0  0  0  0
  5  6  1  0  0  0  0
  6  7  1  0  0  0  0
  7  8  1  0  0  0  0
  8  9  1  0  0  0  0
  4  9  1  0  0  0  0
  3 10  2  0  0  0  0
 10 11  1  0  0  0  0
 11 12  2  0  0  0  0
 12 13  1  0  0  0  0
  2 13  2  0  0  0  0
  1 14  1  0  0  0  0
 14 15  2  0  0  0  0
 15 16  1  0  0  0  0
 16 17  2  0  0  0  0
 17 18  1  0  0  0  0
 18 19  2  0  0  0  0
 14 19  1  0  0  0  0
 17 20  1  0  0  0  0
 15 21  1  0  0  0  0
 22  6  1  0  0  0  0
M  END
> <InChI>
InChI=1S/C18H22N2OS/c1-13-7-8-16(14(2)11-13)22-17-6-4-3-5-15(17)20-10-9-19-18(21)12-20/h3-8,11,18-19,21H,9-10,12H2,1-2H3

> <InChIKey>
VGDHGCOYOFXHOU-UHFFFAOYSA-N

> <SMILES>
S(C=1C(N2CC(NCC2)O)=CC=CC1)C3=C(C=C(C=C3)C)C

> <Synonyms>


> <PUBCHEM_CID>


> <Molecular_formula>
C18H22N2OS

> <Major_Isotope_Mass>
314.145284324

> <ALogP>
4.164699999999998

> <Lipinski_Violations>
0

> <Insecticide_Likeness_Violations>
0

> <Post_Em_Herbicide_Likeness_Violations>
0

> <Metabolite_ID>
BTM00009

> <Reaction>
Hydroxylation of heteroalicyclic secondary carbon

> <Reaction_ID>
BTMR1070

> <Enzyme(s)>
CYP1A2
CYP2A6
CYP2C9
CYP2D6
CYP3A4

> <Biosystem>
HUMAN

> <Precursor_ID>
TEST0034_Vortioxetine

> <Precursor_SMILES>
S(C=1C(N2CCNCC2)=CC=CC1)C3=C(C=C(C=C3)C)C

> <Precursor_InChI>
InChI=1S/C18H22N2S/c1-14-7-8-17(15(2)13-14)21-18-6-4-3-5-16(18)20-11-9-19-10-12-20/h3-8,13,19H,9-12H2,1-2H3

> <Precursor_InChIKey>
YQNWZWMKLDQSAC-UHFFFAOYSA-N

> <Precursor_ALogP>
4.504399

> <Precursor_Major_Isotope_Mass>
298.1503

$$$$
