BTM00001
  CDK     08072417472D

 23 24  0  0  1  0  0  0  0  0999 V2000
    8.7228    0.5394    0.0000 N   0  0  0  0  0  0  0  0  0  0  0  0
    7.4239   -0.2108    0.0000 C   0  0  0  0  0  0  0  0  0  0  0  0
    7.4241   -1.7108    0.0000 O   0  0  0  0  0  0  0  0  0  0  0  0
    6.1247    0.5390    0.0000 C   0  0  0  0  0  0  0  0  0  0  0  0
    4.8257   -0.2110    0.0000 C   0  0  0  0  0  0  0  0  0  0  0  0
    3.5262    0.5398    0.0000 C   0  0  0  0  0  0  0  0  0  0  0  0
    2.2271   -0.2102    0.0000 O   0  0  0  0  0  0  0  0  0  0  0  0
    0.9281    0.5398    0.0000 C   0  0  0  0  0  0  0  0  0  0  0  0
   -0.3710   -0.2102    0.0000 C   0  0  0  0  0  0  0  0  0  0  0  0
   -1.1210    1.0888    0.0000 F   0  0  0  0  0  0  0  0  0  0  0  0
   -1.6700   -0.9602    0.0000 F   0  0  0  0  0  0  0  0  0  0  0  0
    0.3790   -1.5092    0.0000 F   0  0  0  0  0  0  0  0  0  0  0  0
    3.5257    2.0406    0.0000 C   0  0  0  0  0  0  0  0  0  0  0  0
    4.8247    2.7906    0.0000 C   0  0  0  0  0  0  0  0  0  0  0  0
    6.1242    2.0398    0.0000 C   0  0  0  0  0  0  0  0  0  0  0  0
    7.4233    2.7898    0.0000 O   0  0  0  0  0  0  0  0  0  0  0  0
   10.0219   -0.2104    0.0000 C   0  0  0  0  0  0  0  0  0  0  0  0
   11.3209    0.5398    0.0000 C   0  0  1  0  0  0  0  0  0  0  0  0
   12.6209   -0.2102    0.0000 N   0  0  0  0  0  0  0  0  0  0  0  0
   13.9209    0.5398    0.0000 C   0  0  0  0  0  0  0  0  0  0  0  0
   13.9209    2.0398    0.0000 C   0  0  0  0  0  0  0  0  0  0  0  0
   12.6209    2.7898    0.0000 C   0  0  0  0  0  0  0  0  0  0  0  0
   11.3209    2.0398    0.0000 C   0  0  0  0  0  0  0  0  0  0  0  0
  1  2  1  0  0  0  0
  2  3  2  0  0  0  0
  2  4  1  0  0  0  0
  4  5  2  0  0  0  0
  5  6  1  0  0  0  0
  6  7  1  0  0  0  0
  7  8  1  0  0  0  0
  8  9  1  0  0  0  0
  9 10  1  0  0  0  0
  9 11  1  0  0  0  0
  9 12  1  0  0  0  0
  6 13  2  0  0  0  0
 13 14  1  0  0  0  0
 14 15  2  0  0  0  0
  4 15  1  0  0  0  0
 15 16  1  0  0  0  0
  1 17  1  0  0  0  0
 18 17  1  6  0  0  0
 18 19  1  0  0  0  0
 19 20  1  0  0  0  0
 20 21  1  0  0  0  0
 21 22  1  0  0  0  0
 22 23  1  0  0  0  0
 18 23  1  0  0  0  0
M  END
> <InChI>
InChI=1S/C15H19F3N2O3/c16-15(17,18)9-23-11-4-5-13(21)12(7-11)14(22)20-8-10-3-1-2-6-19-10/h4-5,7,10,19,21H,1-3,6,8-9H2,(H,20,22)/t10-/m0/s1

> <InChIKey>
FNWQOVVWANCDDT-JTQLQIEISA-N

> <SMILES>
N(C(=O)C1=CC(OCC(F)(F)F)=CC=C1O)C[C@H]2NCCCC2

> <Synonyms>


> <PUBCHEM_CID>


> <Molecular_formula>
C15H19F3N2O3

> <Major_Isotope_Mass>
332.13477712799994

> <ALogP>
2.3104

> <Lipinski_Violations>
0

> <Insecticide_Likeness_Violations>
1

> <Post_Em_Herbicide_Likeness_Violations>
1

> <Metabolite_ID>
BTM00001

> <Reaction>
O-Dealkylation

> <Reaction_ID>
BTMR0052

> <Enzyme(s)>
CYP1A2
CYP2A6
CYP2C9
CYP2C19
CYP2D6
CYP2E1
CYP3A4

> <Biosystem>
HUMAN

> <Precursor_ID>
TEST0096_Flecainide

> <Precursor_SMILES>
N(C(=O)C1=CC(OCC(F)(F)F)=CC=C1OCC(F)(F)F)C[C@H]2NCCCC2

> <Precursor_InChI>
InChI=1S/C17H20F6N2O3/c18-16(19,20)9-27-12-4-5-14(28-10-17(21,22)23)13(7-12)15(26)25-8-11-3-1-2-6-24-11/h4-5,7,11,24H,1-3,6,8-10H2,(H,25,26)/t11-/m0/s1

> <Precursor_InChIKey>
DJBNUMBKLMJRSA-NSHDSACASA-N

> <Precursor_ALogP>
3.568800

> <Precursor_Major_Isotope_Mass>
414.1378

$$$$
BTM00002
  CDK     08072417472D

  6  5  0  0  0  0  0  0  0  0999 V2000
    1.3493    2.0625    0.0000 C   0  0  0  0  0  0  0  0  0  0  0  0
    0.0502    1.3125    0.0000 C   0  0  0  0  0  0  0  0  0  0  0  0
    0.8002    0.0135    0.0000 F   0  0  0  0  0  0  0  0  0  0  0  0
   -0.6998    2.6115    0.0000 F   0  0  0  0  0  0  0  0  0  0  0  0
   -1.2488    0.5625    0.0000 F   0  0  0  0  0  0  0  0  0  0  0  0
    1.3493    3.5625    0.0000 O   0  0  0  0  0  0  0  0  0  0  0  0
  1  2  1  0  0  0  0
  2  3  1  0  0  0  0
  2  4  1  0  0  0  0
  2  5  1  0  0  0  0
  1  6  2  0  0  0  0
M  END
> <InChI>
InChI=1S/C2HF3O/c3-2(4,5)1-6/h1H

> <InChIKey>
JVTSHOJDBRTPHD-UHFFFAOYSA-N

> <SMILES>
C(C(F)(F)F)=O

> <Synonyms>


> <PUBCHEM_CID>


> <Molecular_formula>
C2HF3O

> <Major_Isotope_Mass>
97.997949312

> <ALogP>
0.9057

> <Lipinski_Violations>
0

> <Insecticide_Likeness_Violations>
0

> <Post_Em_Herbicide_Likeness_Violations>
0

> <Metabolite_ID>
BTM00002

> <Reaction>
O-Dealkylation

> <Reaction_ID>
BTMR0052

> <Enzyme(s)>
CYP1A2
CYP2A6
CYP2C9
CYP2C19
CYP2D6
CYP2E1
CYP3A4

> <Biosystem>
HUMAN

> <Precursor_ID>
TEST0096_Flecainide

> <Precursor_SMILES>
N(C(=O)C1=CC(OCC(F)(F)F)=CC=C1OCC(F)(F)F)C[C@H]2NCCCC2

> <Precursor_InChI>
InChI=1S/C17H20F6N2O3/c18-16(19,20)9-27-12-4-5-14(28-10-17(21,22)23)13(7-12)15(26)25-8-11-3-1-2-6-24-11/h4-5,7,11,24H,1-3,6,8-10H2,(H,25,26)/t11-/m0/s1

> <Precursor_InChIKey>
DJBNUMBKLMJRSA-NSHDSACASA-N

> <Precursor_ALogP>
3.568800

> <Precursor_Major_Isotope_Mass>
414.1378

$$$$
BTM00003
  CDK     08072417472D

 23 24  0  0  1  0  0  0  0  0999 V2000
    4.8257   -3.0088    0.0000 N   0  0  0  0  0  0  0  0  0  0  0  0
    3.5268   -3.7590    0.0000 C   0  0  0  0  0  0  0  0  0  0  0  0
    3.5270   -5.2590    0.0000 O   0  0  0  0  0  0  0  0  0  0  0  0
    2.2276   -3.0092    0.0000 C   0  0  0  0  0  0  0  0  0  0  0  0
    0.9286   -3.7592    0.0000 C   0  0  0  0  0  0  0  0  0  0  0  0
   -0.3710   -3.0084    0.0000 C   0  0  0  0  0  0  0  0  0  0  0  0
   -1.6700   -3.7584    0.0000 O   0  0  0  0  0  0  0  0  0  0  0  0
   -0.3714   -1.5076    0.0000 C   0  0  0  0  0  0  0  0  0  0  0  0
    0.9276   -0.7576    0.0000 C   0  0  0  0  0  0  0  0  0  0  0  0
    2.2271   -1.5084    0.0000 C   0  0  0  0  0  0  0  0  0  0  0  0
    3.5262   -0.7584    0.0000 O   0  0  0  0  0  0  0  0  0  0  0  0
    3.5262    0.7416    0.0000 C   0  0  0  0  0  0  0  0  0  0  0  0
    2.2271    1.4916    0.0000 C   0  0  0  0  0  0  0  0  0  0  0  0
    2.9771    2.7906    0.0000 F   0  0  0  0  0  0  0  0  0  0  0  0
    0.9281    2.2416    0.0000 F   0  0  0  0  0  0  0  0  0  0  0  0
    1.4771    0.1925    0.0000 F   0  0  0  0  0  0  0  0  0  0  0  0
    6.1248   -3.7586    0.0000 C   0  0  0  0  0  0  0  0  0  0  0  0
    7.4237   -3.0084    0.0000 C   0  0  1  0  0  0  0  0  0  0  0  0
    8.7237   -3.7584    0.0000 N   0  0  0  0  0  0  0  0  0  0  0  0
   10.0237   -3.0084    0.0000 C   0  0  0  0  0  0  0  0  0  0  0  0
   10.0237   -1.5084    0.0000 C   0  0  0  0  0  0  0  0  0  0  0  0
    8.7237   -0.7584    0.0000 C   0  0  0  0  0  0  0  0  0  0  0  0
    7.4237   -1.5084    0.0000 C   0  0  0  0  0  0  0  0  0  0  0  0
  1  2  1  0  0  0  0
  2  3  2  0  0  0  0
  2  4  1  0  0  0  0
  4  5  2  0  0  0  0
  5  6  1  0  0  0  0
  6  7  1  0  0  0  0
  6  8  2  0  0  0  0
  8  9  1  0  0  0  0
  9 10  2  0  0  0  0
  4 10  1  0  0  0  0
 10 11  1  0  0  0  0
 11 12  1  0  0  0  0
 12 13  1  0  0  0  0
 13 14  1  0  0  0  0
 13 15  1  0  0  0  0
 13 16  1  0  0  0  0
  1 17  1  0  0  0  0
 18 17  1  6  0  0  0
 18 19  1  0  0  0  0
 19 20  1  0  0  0  0
 20 21  1  0  0  0  0
 21 22  1  0  0  0  0
 22 23  1  0  0  0  0
 18 23  1  0  0  0  0
M  END
> <InChI>
InChI=1S/C15H19F3N2O3/c16-15(17,18)9-23-13-5-4-11(21)7-12(13)14(22)20-8-10-3-1-2-6-19-10/h4-5,7,10,19,21H,1-3,6,8-9H2,(H,20,22)/t10-/m0/s1

> <InChIKey>
FVJPPEWHZCSTAC-JTQLQIEISA-N

> <SMILES>
N(C(=O)C1=CC(O)=CC=C1OCC(F)(F)F)C[C@H]2NCCCC2

> <Synonyms>


> <PUBCHEM_CID>


> <Molecular_formula>
C15H19F3N2O3

> <Major_Isotope_Mass>
332.134777128

> <ALogP>
2.3104

> <Lipinski_Violations>
0

> <Insecticide_Likeness_Violations>
1

> <Post_Em_Herbicide_Likeness_Violations>
1

> <Metabolite_ID>
BTM00003

> <Reaction>
O-Dealkylation

> <Reaction_ID>
BTMR0052

> <Enzyme(s)>
CYP1A2
CYP2A6
CYP2C9
CYP2C19
CYP2D6
CYP2E1
CYP3A4

> <Biosystem>
HUMAN

> <Precursor_ID>
TEST0096_Flecainide

> <Precursor_SMILES>
N(C(=O)C1=CC(OCC(F)(F)F)=CC=C1OCC(F)(F)F)C[C@H]2NCCCC2

> <Precursor_InChI>
InChI=1S/C17H20F6N2O3/c18-16(19,20)9-27-12-4-5-14(28-10-17(21,22)23)13(7-12)15(26)25-8-11-3-1-2-6-24-11/h4-5,7,11,24H,1-3,6,8-10H2,(H,25,26)/t11-/m0/s1

> <Precursor_InChIKey>
DJBNUMBKLMJRSA-NSHDSACASA-N

> <Precursor_ALogP>
3.568800

> <Precursor_Major_Isotope_Mass>
414.1378

$$$$
BTM00004
  CDK     08072417472D

 29 30  0  0  1  0  0  0  0  0999 V2000
   -3.8981   -0.7504    0.0000 N   0  0  0  0  0  0  0  0  0  0  0  0
   -5.1970   -1.5006    0.0000 C   0  0  0  0  0  0  0  0  0  0  0  0
   -5.1968   -3.0006    0.0000 O   0  0  0  0  0  0  0  0  0  0  0  0
   -6.4962   -0.7508    0.0000 C   0  0  0  0  0  0  0  0  0  0  0  0
   -7.7952   -1.5008    0.0000 C   0  0  0  0  0  0  0  0  0  0  0  0
   -9.0947   -0.7500    0.0000 C   0  0  0  0  0  0  0  0  0  0  0  0
  -10.3937   -1.5000    0.0000 O   0  0  0  0  0  0  0  0  0  0  0  0
  -11.6928   -0.7500    0.0000 C   0  0  0  0  0  0  0  0  0  0  0  0
  -12.9918   -1.5000    0.0000 C   0  0  0  0  0  0  0  0  0  0  0  0
  -13.7418   -0.2010    0.0000 F   0  0  0  0  0  0  0  0  0  0  0  0
  -14.2909   -2.2500    0.0000 F   0  0  0  0  0  0  0  0  0  0  0  0
  -12.2418   -2.7990    0.0000 F   0  0  0  0  0  0  0  0  0  0  0  0
   -9.0952    0.7508    0.0000 C   0  0  0  0  0  0  0  0  0  0  0  0
   -7.7962    1.5008    0.0000 C   0  0  0  0  0  0  0  0  0  0  0  0
   -6.4966    0.7500    0.0000 C   0  0  0  0  0  0  0  0  0  0  0  0
   -5.1976    1.5000    0.0000 O   0  0  0  0  0  0  0  0  0  0  0  0
   -5.1976    3.0000    0.0000 C   0  0  0  0  0  0  0  0  0  0  0  0
   -3.8986    3.7500    0.0000 C   0  0  0  0  0  0  0  0  0  0  0  0
   -3.1486    2.4510    0.0000 F   0  0  0  0  0  0  0  0  0  0  0  0
   -2.5995    4.5000    0.0000 F   0  0  0  0  0  0  0  0  0  0  0  0
   -4.6486    5.0490    0.0000 F   0  0  0  0  0  0  0  0  0  0  0  0
   -2.5989   -1.5002    0.0000 C   0  0  0  0  0  0  0  0  0  0  0  0
   -1.3000   -0.7500    0.0000 C   0  0  1  0  0  0  0  0  0  0  0  0
   -0.0000   -1.5000    0.0000 N   0  0  0  0  0  0  0  0  0  0  0  0
    1.3000   -0.7500    0.0000 C   0  0  0  0  0  0  0  0  0  0  0  0
    1.3000    0.7500    0.0000 C   0  0  0  0  0  0  0  0  0  0  0  0
   -0.0000    1.5000    0.0000 C   0  0  0  0  0  0  0  0  0  0  0  0
   -1.3000    0.7500    0.0000 C   0  0  0  0  0  0  0  0  0  0  0  0
    2.5989   -1.5002    0.0000 O   0  0  0  0  0  0  0  0  0  0  0  0
  1  2  1  0  0  0  0
  2  3  2  0  0  0  0
  2  4  1  0  0  0  0
  4  5  2  0  0  0  0
  5  6  1  0  0  0  0
  6  7  1  0  0  0  0
  7  8  1  0  0  0  0
  8  9  1  0  0  0  0
  9 10  1  0  0  0  0
  9 11  1  0  0  0  0
  9 12  1  0  0  0  0
  6 13  2  0  0  0  0
 13 14  1  0  0  0  0
 14 15  2  0  0  0  0
  4 15  1  0  0  0  0
 15 16  1  0  0  0  0
 16 17  1  0  0  0  0
 17 18  1  0  0  0  0
 18 19  1  0  0  0  0
 18 20  1  0  0  0  0
 18 21  1  0  0  0  0
  1 22  1  0  0  0  0
 23 22  1  6  0  0  0
 23 24  1  0  0  0  0
 24 25  1  0  0  0  0
 25 26  1  0  0  0  0
 26 27  1  0  0  0  0
 27 28  1  0  0  0  0
 23 28  1  0  0  0  0
 29 25  1  0  0  0  0
M  END
> <InChI>
InChI=1S/C17H20F6N2O4/c18-16(19,20)8-28-11-4-5-13(29-9-17(21,22)23)12(6-11)15(27)24-7-10-2-1-3-14(26)25-10/h4-6,10,14,25-26H,1-3,7-9H2,(H,24,27)/t10-,14?/m0/s1

> <InChIKey>
QBTMEYWLWBJUKJ-XLLULAGJSA-N

> <SMILES>
N(C(=O)C1=CC(OCC(F)(F)F)=CC=C1OCC(F)(F)F)C[C@H]2NC(CCC2)O

> <Synonyms>


> <PUBCHEM_CID>


> <Molecular_formula>
C17H20F6N2O4

> <Major_Isotope_Mass>
430.13272644

> <ALogP>
2.970300000000001

> <Lipinski_Violations>
0

> <Insecticide_Likeness_Violations>
1

> <Post_Em_Herbicide_Likeness_Violations>
1

> <Metabolite_ID>
BTM00004

> <Reaction>
Hydroxylation of heteroalicyclic secondary carbon

> <Reaction_ID>
BTMR1070

> <Enzyme(s)>
CYP1A2
CYP2A6
CYP2C9
CYP2D6
CYP3A4

> <Biosystem>
HUMAN

> <Precursor_ID>
TEST0096_Flecainide

> <Precursor_SMILES>
N(C(=O)C1=CC(OCC(F)(F)F)=CC=C1OCC(F)(F)F)C[C@H]2NCCCC2

> <Precursor_InChI>
InChI=1S/C17H20F6N2O3/c18-16(19,20)9-27-12-4-5-14(28-10-17(21,22)23)13(7-12)15(26)25-8-11-3-1-2-6-24-11/h4-5,7,11,24H,1-3,6,8-10H2,(H,25,26)/t11-/m0/s1

> <Precursor_InChIKey>
DJBNUMBKLMJRSA-NSHDSACASA-N

> <Precursor_ALogP>
3.568800

> <Precursor_Major_Isotope_Mass>
414.1378

$$$$
BTM00005
  CDK     08072417472D

 29 30  0  0  1  0  0  0  0  0999 V2000
   -3.8981   -0.7504    0.0000 N   0  0  0  0  0  0  0  0  0  0  0  0
   -5.1970   -1.5006    0.0000 C   0  0  0  0  0  0  0  0  0  0  0  0
   -5.1968   -3.0006    0.0000 O   0  0  0  0  0  0  0  0  0  0  0  0
   -6.4962   -0.7508    0.0000 C   0  0  0  0  0  0  0  0  0  0  0  0
   -7.7952   -1.5008    0.0000 C   0  0  0  0  0  0  0  0  0  0  0  0
   -9.0947   -0.7500    0.0000 C   0  0  0  0  0  0  0  0  0  0  0  0
  -10.3937   -1.5000    0.0000 O   0  0  0  0  0  0  0  0  0  0  0  0
  -11.6928   -0.7500    0.0000 C   0  0  0  0  0  0  0  0  0  0  0  0
  -12.9918   -1.5000    0.0000 C   0  0  0  0  0  0  0  0  0  0  0  0
  -13.7418   -0.2010    0.0000 F   0  0  0  0  0  0  0  0  0  0  0  0
  -14.2909   -2.2500    0.0000 F   0  0  0  0  0  0  0  0  0  0  0  0
  -12.2418   -2.7990    0.0000 F   0  0  0  0  0  0  0  0  0  0  0  0
   -9.0952    0.7508    0.0000 C   0  0  0  0  0  0  0  0  0  0  0  0
   -7.7962    1.5008    0.0000 C   0  0  0  0  0  0  0  0  0  0  0  0
   -6.4966    0.7500    0.0000 C   0  0  0  0  0  0  0  0  0  0  0  0
   -5.1976    1.5000    0.0000 O   0  0  0  0  0  0  0  0  0  0  0  0
   -5.1976    3.0000    0.0000 C   0  0  0  0  0  0  0  0  0  0  0  0
   -3.8986    3.7500    0.0000 C   0  0  0  0  0  0  0  0  0  0  0  0
   -3.1486    2.4510    0.0000 F   0  0  0  0  0  0  0  0  0  0  0  0
   -2.5995    4.5000    0.0000 F   0  0  0  0  0  0  0  0  0  0  0  0
   -4.6486    5.0490    0.0000 F   0  0  0  0  0  0  0  0  0  0  0  0
   -2.5989   -1.5002    0.0000 C   0  0  0  0  0  0  0  0  0  0  0  0
   -1.3000   -0.7500    0.0000 C   0  0  1  0  0  0  0  0  0  0  0  0
   -0.0000   -1.5000    0.0000 N   0  0  0  0  0  0  0  0  0  0  0  0
    1.3000   -0.7500    0.0000 C   0  0  0  0  0  0  0  0  0  0  0  0
    1.3000    0.7500    0.0000 C   0  0  0  0  0  0  0  0  0  0  0  0
    0.0000    1.5000    0.0000 C   0  0  0  0  0  0  0  0  0  0  0  0
   -1.3000    0.7500    0.0000 C   0  0  0  0  0  0  0  0  0  0  0  0
    2.5989    1.5002    0.0000 O   0  0  0  0  0  0  0  0  0  0  0  0
  1  2  1  0  0  0  0
  2  3  2  0  0  0  0
  2  4  1  0  0  0  0
  4  5  2  0  0  0  0
  5  6  1  0  0  0  0
  6  7  1  0  0  0  0
  7  8  1  0  0  0  0
  8  9  1  0  0  0  0
  9 10  1  0  0  0  0
  9 11  1  0  0  0  0
  9 12  1  0  0  0  0
  6 13  2  0  0  0  0
 13 14  1  0  0  0  0
 14 15  2  0  0  0  0
  4 15  1  0  0  0  0
 15 16  1  0  0  0  0
 16 17  1  0  0  0  0
 17 18  1  0  0  0  0
 18 19  1  0  0  0  0
 18 20  1  0  0  0  0
 18 21  1  0  0  0  0
  1 22  1  0  0  0  0
 23 22  1  6  0  0  0
 23 24  1  0  0  0  0
 24 25  1  0  0  0  0
 25 26  1  0  0  0  0
 26 27  1  0  0  0  0
 27 28  1  0  0  0  0
 23 28  1  0  0  0  0
 29 26  1  0  0  0  0
M  END
> <InChI>
InChI=1S/C17H20F6N2O4/c18-16(19,20)8-28-12-3-4-14(29-9-17(21,22)23)13(5-12)15(27)25-6-10-1-2-11(26)7-24-10/h3-5,10-11,24,26H,1-2,6-9H2,(H,25,27)/t10-,11?/m0/s1

> <InChIKey>
KYWPAAOWRFSDBU-VUWPPUDQSA-N

> <SMILES>
N(C(=O)C1=CC(OCC(F)(F)F)=CC=C1OCC(F)(F)F)C[C@H]2NCC(CC2)O

> <Synonyms>


> <PUBCHEM_CID>


> <Molecular_formula>
C17H20F6N2O4

> <Major_Isotope_Mass>
430.13272644

> <ALogP>
2.6019000000000005

> <Lipinski_Violations>
0

> <Insecticide_Likeness_Violations>
1

> <Post_Em_Herbicide_Likeness_Violations>
1

> <Metabolite_ID>
BTM00005

> <Reaction>
Hydroxylation of heteroalicyclic secondary carbon

> <Reaction_ID>
BTMR1071

> <Enzyme(s)>
CYP1A2

> <Biosystem>
HUMAN

> <Precursor_ID>
TEST0096_Flecainide

> <Precursor_SMILES>
N(C(=O)C1=CC(OCC(F)(F)F)=CC=C1OCC(F)(F)F)C[C@H]2NCCCC2

> <Precursor_InChI>
InChI=1S/C17H20F6N2O3/c18-16(19,20)9-27-12-4-5-14(28-10-17(21,22)23)13(7-12)15(26)25-8-11-3-1-2-6-24-11/h4-5,7,11,24H,1-3,6,8-10H2,(H,25,26)/t11-/m0/s1

> <Precursor_InChIKey>
DJBNUMBKLMJRSA-NSHDSACASA-N

> <Precursor_ALogP>
3.568800

> <Precursor_Major_Isotope_Mass>
414.1378

$$$$
BTM00006
  CDK     08072417472D

 29 30  0  0  1  0  0  0  0  0999 V2000
   -5.4344   -2.3882    0.0000 N   0  0  0  0  0  0  0  0  0  0  0  0
   -5.4342   -3.8882    0.0000 C   0  0  0  0  0  0  0  0  0  0  0  0
   -6.7331   -4.6385    0.0000 O   0  0  0  0  0  0  0  0  0  0  0  0
   -4.1350   -4.6380    0.0000 C   0  0  0  0  0  0  0  0  0  0  0  0
   -2.8360   -3.8880    0.0000 C   0  0  0  0  0  0  0  0  0  0  0  0
   -1.5364   -4.6389    0.0000 C   0  0  0  0  0  0  0  0  0  0  0  0
   -0.2374   -3.8889    0.0000 O   0  0  0  0  0  0  0  0  0  0  0  0
    1.0616   -4.6389    0.0000 C   0  0  0  0  0  0  0  0  0  0  0  0
    2.3607   -3.8889    0.0000 C   0  0  0  0  0  0  0  0  0  0  0  0
    3.1107   -5.1879    0.0000 F   0  0  0  0  0  0  0  0  0  0  0  0
    3.6597   -3.1389    0.0000 F   0  0  0  0  0  0  0  0  0  0  0  0
    1.6107   -2.5898    0.0000 F   0  0  0  0  0  0  0  0  0  0  0  0
   -1.5360   -6.1397    0.0000 C   0  0  0  0  0  0  0  0  0  0  0  0
   -2.8350   -6.8897    0.0000 C   0  0  0  0  0  0  0  0  0  0  0  0
   -4.1345   -6.1389    0.0000 C   0  0  0  0  0  0  0  0  0  0  0  0
   -5.4336   -6.8889    0.0000 O   0  0  0  0  0  0  0  0  0  0  0  0
   -5.4336   -8.3889    0.0000 C   0  0  0  0  0  0  0  0  0  0  0  0
   -6.7326   -9.1389    0.0000 C   0  0  0  0  0  0  0  0  0  0  0  0
   -7.4826   -7.8398    0.0000 F   0  0  0  0  0  0  0  0  0  0  0  0
   -8.0316   -9.8889    0.0000 F   0  0  0  0  0  0  0  0  0  0  0  0
   -5.9826  -10.4379    0.0000 F   0  0  0  0  0  0  0  0  0  0  0  0
   -6.7336   -1.6385    0.0000 C   0  0  0  0  0  0  0  0  0  0  0  0
   -6.7338   -0.1385    0.0000 C   0  0  1  0  0  0  0  0  0  0  0  0
   -5.4343    0.6124    0.0000 N   0  0  0  0  0  0  0  0  0  0  0  0
   -5.4338    2.1132    0.0000 C   0  0  0  0  0  0  0  0  0  0  0  0
   -6.7328    2.8632    0.0000 C   0  0  0  0  0  0  0  0  0  0  0  0
   -8.0324    2.1124    0.0000 C   0  0  0  0  0  0  0  0  0  0  0  0
   -8.0328    0.6115    0.0000 C   0  0  0  0  0  0  0  0  0  0  0  0
   -9.3320   -0.1382    0.0000 O   0  0  0  0  0  0  0  0  0  0  0  0
  1  2  1  0  0  0  0
  2  3  2  0  0  0  0
  2  4  1  0  0  0  0
  4  5  2  0  0  0  0
  5  6  1  0  0  0  0
  6  7  1  0  0  0  0
  7  8  1  0  0  0  0
  8  9  1  0  0  0  0
  9 10  1  0  0  0  0
  9 11  1  0  0  0  0
  9 12  1  0  0  0  0
  6 13  2  0  0  0  0
 13 14  1  0  0  0  0
 14 15  2  0  0  0  0
  4 15  1  0  0  0  0
 15 16  1  0  0  0  0
 16 17  1  0  0  0  0
 17 18  1  0  0  0  0
 18 19  1  0  0  0  0
 18 20  1  0  0  0  0
 18 21  1  0  0  0  0
  1 22  1  0  0  0  0
 23 22  1  6  0  0  0
 23 24  1  0  0  0  0
 24 25  1  0  0  0  0
 25 26  1  0  0  0  0
 26 27  1  0  0  0  0
 27 28  1  0  0  0  0
 23 28  1  0  0  0  0
 29 28  1  0  0  0  0
M  END
> <InChI>
InChI=1S/C17H20F6N2O4/c18-16(19,20)8-28-10-3-4-14(29-9-17(21,22)23)11(6-10)15(27)25-7-12-13(26)2-1-5-24-12/h3-4,6,12-13,24,26H,1-2,5,7-9H2,(H,25,27)/t12-,13?/m1/s1

> <InChIKey>
LZLSITNEWPHHHD-PZORYLMUSA-N

> <SMILES>
N(C(=O)C1=CC(OCC(F)(F)F)=CC=C1OCC(F)(F)F)C[C@H]2NCCCC2O

> <Synonyms>


> <PUBCHEM_CID>


> <Molecular_formula>
C17H20F6N2O4

> <Major_Isotope_Mass>
430.13272644

> <ALogP>
2.6019000000000005

> <Lipinski_Violations>
0

> <Insecticide_Likeness_Violations>
1

> <Post_Em_Herbicide_Likeness_Violations>
1

> <Metabolite_ID>
BTM00006

> <Reaction>
Hydroxylation of heteroalicyclic secondary carbon

> <Reaction_ID>
BTMR1071

> <Enzyme(s)>
CYP1A2

> <Biosystem>
HUMAN

> <Precursor_ID>
TEST0096_Flecainide

> <Precursor_SMILES>
N(C(=O)C1=CC(OCC(F)(F)F)=CC=C1OCC(F)(F)F)C[C@H]2NCCCC2

> <Precursor_InChI>
InChI=1S/C17H20F6N2O3/c18-16(19,20)9-27-12-4-5-14(28-10-17(21,22)23)13(7-12)15(26)25-8-11-3-1-2-6-24-11/h4-5,7,11,24H,1-3,6,8-10H2,(H,25,26)/t11-/m0/s1

> <Precursor_InChIKey>
DJBNUMBKLMJRSA-NSHDSACASA-N

> <Precursor_ALogP>
3.568800

> <Precursor_Major_Isotope_Mass>
414.1378

$$$$
