BTM00001
  CDK     08072417442D

 36 39  0  0  0  0  0  0  0  0999 V2000
   -5.1981    0.7504    0.0000 S   0  0  0  0  0  0  0  0  0  0  0  0
   -6.4972    0.0006    0.0000 O   0  0  0  0  0  0  0  0  0  0  0  0
   -4.4483   -0.5487    0.0000 O   0  0  0  0  0  0  0  0  0  0  0  0
   -3.8989    1.5002    0.0000 N   0  0  0  0  0  0  0  0  0  0  0  0
   -2.6000    0.7500    0.0000 C   0  0  0  0  0  0  0  0  0  0  0  0
   -1.3000    1.5000    0.0000 C   0  0  0  0  0  0  0  0  0  0  0  0
    0.0000    0.7500    0.0000 C   0  0  0  0  0  0  0  0  0  0  0  0
    0.0000   -0.7500    0.0000 C   0  0  0  0  0  0  0  0  0  0  0  0
    1.3000   -1.5000    0.0000 C   0  0  0  0  0  0  0  0  0  0  0  0
    2.6000   -0.7500    0.0000 C   0  0  0  0  0  0  0  0  0  0  0  0
    3.8989   -1.5002    0.0000 C   0  0  0  0  0  0  0  0  0  0  0  0
    5.1989   -0.7502    0.0000 C   0  0  0  0  0  0  0  0  0  0  0  0
    5.1989    0.7498    0.0000 O   0  0  0  0  0  0  0  0  0  0  0  0
    6.4980    1.4998    0.0000 C   0  0  0  0  0  0  0  0  0  0  0  0
    6.4989   -1.5002    0.0000 C   0  0  0  0  0  0  0  0  0  0  0  0
    7.7978   -0.7500    0.0000 C   0  0  0  0  0  0  0  0  0  0  0  0
    8.5480   -2.0489    0.0000 C   0  0  0  0  0  0  0  0  0  0  0  0
    9.0968    0.0002    0.0000 C   0  0  0  0  0  0  0  0  0  0  0  0
    7.0476    0.5489    0.0000 C   0  0  0  0  0  0  0  0  0  0  0  0
    6.4989   -3.0002    0.0000 C   0  0  0  0  0  0  0  0  0  0  0  0
    5.1989   -3.7502    0.0000 C   0  0  0  0  0  0  0  0  0  0  0  0
    5.1989   -5.2502    0.0000 N   0  0  0  0  0  0  0  0  0  0  0  0
    6.4989   -6.0002    0.0000 C   0  0  0  0  0  0  0  0  0  0  0  0
    7.7978   -5.2500    0.0000 O   0  0  0  0  0  0  0  0  0  0  0  0
    6.4989   -7.5002    0.0000 N   0  0  0  0  0  0  0  0  0  0  0  0
    5.1989   -8.2502    0.0000 C   0  0  0  0  0  0  0  0  0  0  0  0
    5.1989   -9.7502    0.0000 O   0  0  0  0  0  0  0  0  0  0  0  0
    3.8989   -7.5002    0.0000 C   0  0  0  0  0  0  0  0  0  0  0  0
    3.8989   -6.0002    0.0000 C   0  0  0  0  0  0  0  0  0  0  0  0
    3.8989   -3.0002    0.0000 C   0  0  0  0  0  0  0  0  0  0  0  0
    2.6000    0.7500    0.0000 C   0  0  0  0  0  0  0  0  0  0  0  0
    1.3000    1.5000    0.0000 C   0  0  0  0  0  0  0  0  0  0  0  0
   -1.3000   -1.5000    0.0000 C   0  0  0  0  0  0  0  0  0  0  0  0
   -2.6000   -0.7500    0.0000 C   0  0  0  0  0  0  0  0  0  0  0  0
   -5.9479    2.0496    0.0000 C   0  0  0  0  0  0  0  0  0  0  0  0
   -3.8989   -1.5002    0.0000 O   0  0  0  0  0  0  0  0  0  0  0  0
  1  2  2  0  0  0  0
  1  3  2  0  0  0  0
  1  4  1  0  0  0  0
  4  5  1  0  0  0  0
  5  6  2  0  0  0  0
  6  7  1  0  0  0  0
  7  8  2  0  0  0  0
  8  9  1  0  0  0  0
  9 10  2  0  0  0  0
 10 11  1  0  0  0  0
 11 12  1  0  0  0  0
 12 13  1  0  0  0  0
 13 14  1  0  0  0  0
 12 15  2  0  0  0  0
 15 16  1  0  0  0  0
 16 17  1  0  0  0  0
 16 18  1  0  0  0  0
 16 19  1  0  0  0  0
 15 20  1  0  0  0  0
 20 21  2  0  0  0  0
 21 22  1  0  0  0  0
 22 23  1  0  0  0  0
 23 24  2  0  0  0  0
 23 25  1  0  0  0  0
 25 26  1  0  0  0  0
 26 27  2  0  0  0  0
 26 28  1  0  0  0  0
 28 29  2  0  0  0  0
 22 29  1  0  0  0  0
 21 30  1  0  0  0  0
 11 30  2  0  0  0  0
 10 31  1  0  0  0  0
 31 32  2  0  0  0  0
  7 32  1  0  0  0  0
  8 33  1  0  0  0  0
 33 34  2  0  0  0  0
  5 34  1  0  0  0  0
  1 35  1  0  0  0  0
 36 34  1  0  0  0  0
M  END
> <InChI>
InChI=1S/C26H27N3O6S/c1-26(2,3)20-14-18(29-9-8-23(31)27-25(29)32)13-19(24(20)35-4)16-7-6-15-11-21(28-36(5,33)34)22(30)12-17(15)10-16/h6-14,28,30H,1-5H3,(H,27,31,32)

> <InChIKey>
CKLVFSLHZMSEHB-UHFFFAOYSA-N

> <SMILES>
S(=O)(=O)(NC1=CC2=C(C=C(C=3C(OC)=C(C(C)(C)C)C=C(N4C(=O)NC(=O)C=C4)C3)C=C2)C=C1O)C

> <Synonyms>


> <PUBCHEM_CID>


> <Molecular_formula>
C26H27N3O6S

> <Major_Isotope_Mass>
509.16205658399997

> <ALogP>
5.003700000000005

> <Lipinski_Violations>
2

> <Insecticide_Likeness_Violations>
1

> <Post_Em_Herbicide_Likeness_Violations>
1

> <Metabolite_ID>
BTM00001

> <Reaction>
Aromatic hydroxylation of fused benzene ring

> <Reaction_ID>
BTMR1030

> <Enzyme(s)>
CYP1A2
CYP2A6
CYP2B6
CYP2C8
CYP2C9
CYP2C19
CYP2D6
CYP2E1
CYP3A4

> <Biosystem>
HUMAN

> <Precursor_ID>
TEST0068_dasabuvir

> <Precursor_SMILES>
S(=O)(=O)(NC1=CC2=C(C=C(C=3C(OC)=C(C(C)(C)C)C=C(N4C(=O)NC(=O)C=C4)C3)C=C2)C=C1)C

> <Precursor_InChI>
InChI=1S/C26H27N3O5S/c1-26(2,3)22-15-20(29-11-10-23(30)27-25(29)31)14-21(24(22)34-4)18-7-6-17-13-19(28-35(5,32)33)9-8-16(17)12-18/h6-15,28H,1-5H3,(H,27,30,31)

> <Precursor_InChIKey>
NBRBXGKOEOGLOI-UHFFFAOYSA-N

> <Precursor_ALogP>
5.271100

> <Precursor_Major_Isotope_Mass>
493.1671

$$$$
BTM00002
  CDK     08072417442D

 36 39  0  0  0  0  0  0  0  0999 V2000
   -5.1981    0.7504    0.0000 S   0  0  0  0  0  0  0  0  0  0  0  0
   -6.4972    0.0006    0.0000 O   0  0  0  0  0  0  0  0  0  0  0  0
   -4.4483   -0.5487    0.0000 O   0  0  0  0  0  0  0  0  0  0  0  0
   -3.8989    1.5002    0.0000 N   0  0  0  0  0  0  0  0  0  0  0  0
   -2.6000    0.7500    0.0000 C   0  0  0  0  0  0  0  0  0  0  0  0
   -1.3000    1.5000    0.0000 C   0  0  0  0  0  0  0  0  0  0  0  0
    0.0000    0.7500    0.0000 C   0  0  0  0  0  0  0  0  0  0  0  0
    0.0000   -0.7500    0.0000 C   0  0  0  0  0  0  0  0  0  0  0  0
    1.3000   -1.5000    0.0000 C   0  0  0  0  0  0  0  0  0  0  0  0
    2.6000   -0.7500    0.0000 C   0  0  0  0  0  0  0  0  0  0  0  0
    3.8989   -1.5002    0.0000 C   0  0  0  0  0  0  0  0  0  0  0  0
    5.1989   -0.7502    0.0000 C   0  0  0  0  0  0  0  0  0  0  0  0
    5.1989    0.7498    0.0000 O   0  0  0  0  0  0  0  0  0  0  0  0
    6.4980    1.4998    0.0000 C   0  0  0  0  0  0  0  0  0  0  0  0
    6.4989   -1.5002    0.0000 C   0  0  0  0  0  0  0  0  0  0  0  0
    7.7978   -0.7500    0.0000 C   0  0  0  0  0  0  0  0  0  0  0  0
    8.5480   -2.0489    0.0000 C   0  0  0  0  0  0  0  0  0  0  0  0
    9.0968    0.0002    0.0000 C   0  0  0  0  0  0  0  0  0  0  0  0
    7.0476    0.5489    0.0000 C   0  0  0  0  0  0  0  0  0  0  0  0
    6.4989   -3.0002    0.0000 C   0  0  0  0  0  0  0  0  0  0  0  0
    5.1989   -3.7502    0.0000 C   0  0  0  0  0  0  0  0  0  0  0  0
    5.1989   -5.2502    0.0000 N   0  0  0  0  0  0  0  0  0  0  0  0
    6.4989   -6.0002    0.0000 C   0  0  0  0  0  0  0  0  0  0  0  0
    7.7978   -5.2500    0.0000 O   0  0  0  0  0  0  0  0  0  0  0  0
    6.4989   -7.5002    0.0000 N   0  0  0  0  0  0  0  0  0  0  0  0
    5.1989   -8.2502    0.0000 C   0  0  0  0  0  0  0  0  0  0  0  0
    5.1989   -9.7502    0.0000 O   0  0  0  0  0  0  0  0  0  0  0  0
    3.8989   -7.5002    0.0000 C   0  0  0  0  0  0  0  0  0  0  0  0
    3.8989   -6.0002    0.0000 C   0  0  0  0  0  0  0  0  0  0  0  0
    3.8989   -3.0002    0.0000 C   0  0  0  0  0  0  0  0  0  0  0  0
    2.6000    0.7500    0.0000 C   0  0  0  0  0  0  0  0  0  0  0  0
    1.3000    1.5000    0.0000 C   0  0  0  0  0  0  0  0  0  0  0  0
   -1.3000   -1.5000    0.0000 C   0  0  0  0  0  0  0  0  0  0  0  0
   -2.6000   -0.7500    0.0000 C   0  0  0  0  0  0  0  0  0  0  0  0
   -5.9479    2.0496    0.0000 C   0  0  0  0  0  0  0  0  0  0  0  0
    3.8989    1.5002    0.0000 O   0  0  0  0  0  0  0  0  0  0  0  0
  1  2  2  0  0  0  0
  1  3  2  0  0  0  0
  1  4  1  0  0  0  0
  4  5  1  0  0  0  0
  5  6  2  0  0  0  0
  6  7  1  0  0  0  0
  7  8  2  0  0  0  0
  8  9  1  0  0  0  0
  9 10  2  0  0  0  0
 10 11  1  0  0  0  0
 11 12  1  0  0  0  0
 12 13  1  0  0  0  0
 13 14  1  0  0  0  0
 12 15  2  0  0  0  0
 15 16  1  0  0  0  0
 16 17  1  0  0  0  0
 16 18  1  0  0  0  0
 16 19  1  0  0  0  0
 15 20  1  0  0  0  0
 20 21  2  0  0  0  0
 21 22  1  0  0  0  0
 22 23  1  0  0  0  0
 23 24  2  0  0  0  0
 23 25  1  0  0  0  0
 25 26  1  0  0  0  0
 26 27  2  0  0  0  0
 26 28  1  0  0  0  0
 28 29  2  0  0  0  0
 22 29  1  0  0  0  0
 21 30  1  0  0  0  0
 11 30  2  0  0  0  0
 10 31  1  0  0  0  0
 31 32  2  0  0  0  0
  7 32  1  0  0  0  0
  8 33  1  0  0  0  0
 33 34  2  0  0  0  0
  5 34  1  0  0  0  0
  1 35  1  0  0  0  0
 36 31  1  0  0  0  0
M  END
> <InChI>
InChI=1S/C26H27N3O6S/c1-26(2,3)21-14-18(29-9-8-23(31)27-25(29)32)13-20(24(21)35-4)19-11-15-6-7-17(28-36(5,33)34)10-16(15)12-22(19)30/h6-14,28,30H,1-5H3,(H,27,31,32)

> <InChIKey>
IGKJJNWRSOZQJD-UHFFFAOYSA-N

> <SMILES>
S(=O)(=O)(NC1=CC2=C(C=C(C=3C(OC)=C(C(C)(C)C)C=C(N4C(=O)NC(=O)C=C4)C3)C(=C2)O)C=C1)C

> <Synonyms>


> <PUBCHEM_CID>


> <Molecular_formula>
C26H27N3O6S

> <Major_Isotope_Mass>
509.162056584

> <ALogP>
5.003700000000005

> <Lipinski_Violations>
2

> <Insecticide_Likeness_Violations>
1

> <Post_Em_Herbicide_Likeness_Violations>
1

> <Metabolite_ID>
BTM00002

> <Reaction>
Aromatic hydroxylation of fused benzene ring

> <Reaction_ID>
BTMR1030

> <Enzyme(s)>
CYP1A2
CYP2A6
CYP2B6
CYP2C8
CYP2C9
CYP2C19
CYP2D6
CYP2E1
CYP3A4

> <Biosystem>
HUMAN

> <Precursor_ID>
TEST0068_dasabuvir

> <Precursor_SMILES>
S(=O)(=O)(NC1=CC2=C(C=C(C=3C(OC)=C(C(C)(C)C)C=C(N4C(=O)NC(=O)C=C4)C3)C=C2)C=C1)C

> <Precursor_InChI>
InChI=1S/C26H27N3O5S/c1-26(2,3)22-15-20(29-11-10-23(30)27-25(29)31)14-21(24(22)34-4)18-7-6-17-13-19(28-35(5,32)33)9-8-16(17)12-18/h6-15,28H,1-5H3,(H,27,30,31)

> <Precursor_InChIKey>
NBRBXGKOEOGLOI-UHFFFAOYSA-N

> <Precursor_ALogP>
5.271100

> <Precursor_Major_Isotope_Mass>
493.1671

$$$$
BTM00003
  CDK     08072417442D

 34 37  0  0  0  0  0  0  0  0999 V2000
   -5.1981    0.7504    0.0000 S   0  0  0  0  0  0  0  0  0  0  0  0
   -6.4972    0.0006    0.0000 O   0  0  0  0  0  0  0  0  0  0  0  0
   -4.4483   -0.5487    0.0000 O   0  0  0  0  0  0  0  0  0  0  0  0
   -3.8989    1.5002    0.0000 N   0  0  0  0  0  0  0  0  0  0  0  0
   -2.6000    0.7500    0.0000 C   0  0  0  0  0  0  0  0  0  0  0  0
   -1.3000    1.5000    0.0000 C   0  0  0  0  0  0  0  0  0  0  0  0
    0.0000    0.7500    0.0000 C   0  0  0  0  0  0  0  0  0  0  0  0
    0.0000   -0.7500    0.0000 C   0  0  0  0  0  0  0  0  0  0  0  0
    1.3000   -1.5000    0.0000 C   0  0  0  0  0  0  0  0  0  0  0  0
    2.6000   -0.7500    0.0000 C   0  0  0  0  0  0  0  0  0  0  0  0
    3.8989   -1.5002    0.0000 C   0  0  0  0  0  0  0  0  0  0  0  0
    5.1989   -0.7502    0.0000 C   0  0  0  0  0  0  0  0  0  0  0  0
    5.1989    0.7498    0.0000 O   0  0  0  0  0  0  0  0  0  0  0  0
    6.4989   -1.5002    0.0000 C   0  0  0  0  0  0  0  0  0  0  0  0
    7.7978   -0.7500    0.0000 C   0  0  0  0  0  0  0  0  0  0  0  0
    8.5480   -2.0489    0.0000 C   0  0  0  0  0  0  0  0  0  0  0  0
    9.0968    0.0002    0.0000 C   0  0  0  0  0  0  0  0  0  0  0  0
    7.0476    0.5489    0.0000 C   0  0  0  0  0  0  0  0  0  0  0  0
    6.4989   -3.0002    0.0000 C   0  0  0  0  0  0  0  0  0  0  0  0
    5.1989   -3.7502    0.0000 C   0  0  0  0  0  0  0  0  0  0  0  0
    5.1989   -5.2502    0.0000 N   0  0  0  0  0  0  0  0  0  0  0  0
    6.4989   -6.0002    0.0000 C   0  0  0  0  0  0  0  0  0  0  0  0
    7.7978   -5.2500    0.0000 O   0  0  0  0  0  0  0  0  0  0  0  0
    6.4989   -7.5002    0.0000 N   0  0  0  0  0  0  0  0  0  0  0  0
    5.1989   -8.2502    0.0000 C   0  0  0  0  0  0  0  0  0  0  0  0
    5.1989   -9.7502    0.0000 O   0  0  0  0  0  0  0  0  0  0  0  0
    3.8989   -7.5002    0.0000 C   0  0  0  0  0  0  0  0  0  0  0  0
    3.8989   -6.0002    0.0000 C   0  0  0  0  0  0  0  0  0  0  0  0
    3.8989   -3.0002    0.0000 C   0  0  0  0  0  0  0  0  0  0  0  0
    2.6000    0.7500    0.0000 C   0  0  0  0  0  0  0  0  0  0  0  0
    1.3000    1.5000    0.0000 C   0  0  0  0  0  0  0  0  0  0  0  0
   -1.3000   -1.5000    0.0000 C   0  0  0  0  0  0  0  0  0  0  0  0
   -2.6000   -0.7500    0.0000 C   0  0  0  0  0  0  0  0  0  0  0  0
   -5.9479    2.0496    0.0000 C   0  0  0  0  0  0  0  0  0  0  0  0
  1  2  2  0  0  0  0
  1  3  2  0  0  0  0
  1  4  1  0  0  0  0
  4  5  1  0  0  0  0
  5  6  2  0  0  0  0
  6  7  1  0  0  0  0
  7  8  2  0  0  0  0
  8  9  1  0  0  0  0
  9 10  2  0  0  0  0
 10 11  1  0  0  0  0
 11 12  1  0  0  0  0
 12 13  1  0  0  0  0
 12 14  2  0  0  0  0
 14 15  1  0  0  0  0
 15 16  1  0  0  0  0
 15 17  1  0  0  0  0
 15 18  1  0  0  0  0
 14 19  1  0  0  0  0
 19 20  2  0  0  0  0
 20 21  1  0  0  0  0
 21 22  1  0  0  0  0
 22 23  2  0  0  0  0
 22 24  1  0  0  0  0
 24 25  1  0  0  0  0
 25 26  2  0  0  0  0
 25 27  1  0  0  0  0
 27 28  2  0  0  0  0
 21 28  1  0  0  0  0
 20 29  1  0  0  0  0
 11 29  2  0  0  0  0
 10 30  1  0  0  0  0
 30 31  2  0  0  0  0
  7 31  1  0  0  0  0
  8 32  1  0  0  0  0
 32 33  2  0  0  0  0
  5 33  1  0  0  0  0
  1 34  1  0  0  0  0
M  END
> <InChI>
InChI=1S/C25H25N3O5S/c1-25(2,3)21-14-19(28-10-9-22(29)26-24(28)31)13-20(23(21)30)17-6-5-16-12-18(27-34(4,32)33)8-7-15(16)11-17/h5-14,27,30H,1-4H3,(H,26,29,31)

> <InChIKey>
FKXRQUDOUIJOAE-UHFFFAOYSA-N

> <SMILES>
S(=O)(=O)(NC1=CC2=C(C=C(C=3C(O)=C(C(C)(C)C)C=C(N4C(=O)NC(=O)C=C4)C3)C=C2)C=C1)C

> <Synonyms>


> <PUBCHEM_CID>


> <Molecular_formula>
C25H25N3O5S

> <Major_Isotope_Mass>
479.15149190000005

> <ALogP>
5.020100000000003

> <Lipinski_Violations>
1

> <Insecticide_Likeness_Violations>
1

> <Post_Em_Herbicide_Likeness_Violations>
1

> <Metabolite_ID>
BTM00003

> <Reaction>
O-Dealkylation

> <Reaction_ID>
BTMR0052

> <Enzyme(s)>
CYP1A2
CYP2A6
CYP2C9
CYP2C19
CYP2D6
CYP2E1
CYP3A4

> <Biosystem>
HUMAN

> <Precursor_ID>
TEST0068_dasabuvir

> <Precursor_SMILES>
S(=O)(=O)(NC1=CC2=C(C=C(C=3C(OC)=C(C(C)(C)C)C=C(N4C(=O)NC(=O)C=C4)C3)C=C2)C=C1)C

> <Precursor_InChI>
InChI=1S/C26H27N3O5S/c1-26(2,3)22-15-20(29-11-10-23(30)27-25(29)31)14-21(24(22)34-4)18-7-6-17-13-19(28-35(5,32)33)9-8-16(17)12-18/h6-15,28H,1-5H3,(H,27,30,31)

> <Precursor_InChIKey>
NBRBXGKOEOGLOI-UHFFFAOYSA-N

> <Precursor_ALogP>
5.271100

> <Precursor_Major_Isotope_Mass>
493.1671

$$$$
BTM00004
  CDK     08072417442D

 36 39  0  0  0  0  0  0  0  0999 V2000
   -5.1981    0.7504    0.0000 S   0  0  0  0  0  0  0  0  0  0  0  0
   -6.4972    0.0006    0.0000 O   0  0  0  0  0  0  0  0  0  0  0  0
   -4.4483   -0.5487    0.0000 O   0  0  0  0  0  0  0  0  0  0  0  0
   -3.8989    1.5002    0.0000 N   0  0  0  0  0  0  0  0  0  0  0  0
   -2.6000    0.7500    0.0000 C   0  0  0  0  0  0  0  0  0  0  0  0
   -1.3000    1.5000    0.0000 C   0  0  0  0  0  0  0  0  0  0  0  0
    0.0000    0.7500    0.0000 C   0  0  0  0  0  0  0  0  0  0  0  0
    0.0000   -0.7500    0.0000 C   0  0  0  0  0  0  0  0  0  0  0  0
    1.3000   -1.5000    0.0000 C   0  0  0  0  0  0  0  0  0  0  0  0
    2.6000   -0.7500    0.0000 C   0  0  0  0  0  0  0  0  0  0  0  0
    3.8989   -1.5002    0.0000 C   0  0  0  0  0  0  0  0  0  0  0  0
    5.1989   -0.7502    0.0000 C   0  0  0  0  0  0  0  0  0  0  0  0
    5.1989    0.7498    0.0000 O   0  0  0  0  0  0  0  0  0  0  0  0
    6.4980    1.4998    0.0000 C   0  0  0  0  0  0  0  0  0  0  0  0
    6.4989   -1.5002    0.0000 C   0  0  0  0  0  0  0  0  0  0  0  0
    7.7978   -0.7500    0.0000 C   0  0  0  0  0  0  0  0  0  0  0  0
    8.5480   -2.0489    0.0000 C   0  0  0  0  0  0  0  0  0  0  0  0
    9.0968    0.0002    0.0000 C   0  0  0  0  0  0  0  0  0  0  0  0
    7.0476    0.5489    0.0000 C   0  0  0  0  0  0  0  0  0  0  0  0
    6.4989   -3.0002    0.0000 C   0  0  0  0  0  0  0  0  0  0  0  0
    5.1989   -3.7502    0.0000 C   0  0  0  0  0  0  0  0  0  0  0  0
    5.1989   -5.2502    0.0000 N   0  0  0  0  0  0  0  0  0  0  0  0
    6.4989   -6.0002    0.0000 C   0  0  0  0  0  0  0  0  0  0  0  0
    7.7978   -5.2500    0.0000 O   0  0  0  0  0  0  0  0  0  0  0  0
    6.4989   -7.5002    0.0000 N   0  0  0  0  0  0  0  0  0  0  0  0
    5.1989   -8.2502    0.0000 C   0  0  0  0  0  0  0  0  0  0  0  0
    5.1989   -9.7502    0.0000 O   0  0  0  0  0  0  0  0  0  0  0  0
    3.8989   -7.5002    0.0000 C   0  0  0  0  0  0  0  0  0  0  0  0
    3.8989   -6.0002    0.0000 C   0  0  0  0  0  0  0  0  0  0  0  0
    3.8989   -3.0002    0.0000 C   0  0  0  0  0  0  0  0  0  0  0  0
    2.6000    0.7500    0.0000 C   0  0  0  0  0  0  0  0  0  0  0  0
    1.3000    1.5000    0.0000 C   0  0  0  0  0  0  0  0  0  0  0  0
   -1.3000   -1.5000    0.0000 C   0  0  0  0  0  0  0  0  0  0  0  0
   -2.6000   -0.7500    0.0000 C   0  0  0  0  0  0  0  0  0  0  0  0
   -5.9479    2.0496    0.0000 C   0  0  0  0  0  0  0  0  0  0  0  0
    1.3000    3.0000    0.0000 O   0  0  0  0  0  0  0  0  0  0  0  0
  1  2  2  0  0  0  0
  1  3  2  0  0  0  0
  1  4  1  0  0  0  0
  4  5  1  0  0  0  0
  5  6  2  0  0  0  0
  6  7  1  0  0  0  0
  7  8  2  0  0  0  0
  8  9  1  0  0  0  0
  9 10  2  0  0  0  0
 10 11  1  0  0  0  0
 11 12  1  0  0  0  0
 12 13  1  0  0  0  0
 13 14  1  0  0  0  0
 12 15  2  0  0  0  0
 15 16  1  0  0  0  0
 16 17  1  0  0  0  0
 16 18  1  0  0  0  0
 16 19  1  0  0  0  0
 15 20  1  0  0  0  0
 20 21  2  0  0  0  0
 21 22  1  0  0  0  0
 22 23  1  0  0  0  0
 23 24  2  0  0  0  0
 23 25  1  0  0  0  0
 25 26  1  0  0  0  0
 26 27  2  0  0  0  0
 26 28  1  0  0  0  0
 28 29  2  0  0  0  0
 22 29  1  0  0  0  0
 21 30  1  0  0  0  0
 11 30  2  0  0  0  0
 10 31  1  0  0  0  0
 31 32  2  0  0  0  0
  7 32  1  0  0  0  0
  8 33  1  0  0  0  0
 33 34  2  0  0  0  0
  5 34  1  0  0  0  0
  1 35  1  0  0  0  0
 32 36  1  0  0  0  0
M  END
> <InChI>
InChI=1S/C26H27N3O6S/c1-26(2,3)21-14-18(29-9-8-23(31)27-25(29)32)13-20(24(21)35-4)16-10-15-6-7-17(28-36(5,33)34)12-19(15)22(30)11-16/h6-14,28,30H,1-5H3,(H,27,31,32)

> <InChIKey>
PZXBKRHSMCMSAD-UHFFFAOYSA-N

> <SMILES>
S(=O)(=O)(NC1=CC2=C(C=C(C=3C(OC)=C(C(C)(C)C)C=C(N4C(=O)NC(=O)C=C4)C3)C=C2O)C=C1)C

> <Synonyms>


> <PUBCHEM_CID>


> <Molecular_formula>
C26H27N3O6S

> <Major_Isotope_Mass>
509.16205658399997

> <ALogP>
5.003700000000005

> <Lipinski_Violations>
2

> <Insecticide_Likeness_Violations>
1

> <Post_Em_Herbicide_Likeness_Violations>
1

> <Metabolite_ID>
BTM00004

> <Reaction>
Aromatic hydroxylation of fused benzene ring

> <Reaction_ID>
BTMR1031

> <Enzyme(s)>
CYP1A2
CYP2B6
CYP2C8
CYP2C9
CYP2C19
CYP2D6
CYP3A4

> <Biosystem>
HUMAN

> <Precursor_ID>
TEST0068_dasabuvir

> <Precursor_SMILES>
S(=O)(=O)(NC1=CC2=C(C=C(C=3C(OC)=C(C(C)(C)C)C=C(N4C(=O)NC(=O)C=C4)C3)C=C2)C=C1)C

> <Precursor_InChI>
InChI=1S/C26H27N3O5S/c1-26(2,3)22-15-20(29-11-10-23(30)27-25(29)31)14-21(24(22)34-4)18-7-6-17-13-19(28-35(5,32)33)9-8-16(17)12-18/h6-15,28H,1-5H3,(H,27,30,31)

> <Precursor_InChIKey>
NBRBXGKOEOGLOI-UHFFFAOYSA-N

> <Precursor_ALogP>
5.271100

> <Precursor_Major_Isotope_Mass>
493.1671

$$$$
BTM00005
  CDK     08072417442D

 36 39  0  0  0  0  0  0  0  0999 V2000
   -5.1981    0.7504    0.0000 S   0  0  0  0  0  0  0  0  0  0  0  0
   -6.4972    0.0006    0.0000 O   0  0  0  0  0  0  0  0  0  0  0  0
   -4.4483   -0.5487    0.0000 O   0  0  0  0  0  0  0  0  0  0  0  0
   -3.8989    1.5002    0.0000 N   0  0  0  0  0  0  0  0  0  0  0  0
   -2.6000    0.7500    0.0000 C   0  0  0  0  0  0  0  0  0  0  0  0
   -1.3000    1.5000    0.0000 C   0  0  0  0  0  0  0  0  0  0  0  0
    0.0000    0.7500    0.0000 C   0  0  0  0  0  0  0  0  0  0  0  0
    0.0000   -0.7500    0.0000 C   0  0  0  0  0  0  0  0  0  0  0  0
    1.3000   -1.5000    0.0000 C   0  0  0  0  0  0  0  0  0  0  0  0
    2.6000   -0.7500    0.0000 C   0  0  0  0  0  0  0  0  0  0  0  0
    3.8989   -1.5002    0.0000 C   0  0  0  0  0  0  0  0  0  0  0  0
    5.1989   -0.7502    0.0000 C   0  0  0  0  0  0  0  0  0  0  0  0
    5.1989    0.7498    0.0000 O   0  0  0  0  0  0  0  0  0  0  0  0
    6.4980    1.4998    0.0000 C   0  0  0  0  0  0  0  0  0  0  0  0
    6.4989   -1.5002    0.0000 C   0  0  0  0  0  0  0  0  0  0  0  0
    7.7978   -0.7500    0.0000 C   0  0  0  0  0  0  0  0  0  0  0  0
    8.5480   -2.0489    0.0000 C   0  0  0  0  0  0  0  0  0  0  0  0
    9.0968    0.0002    0.0000 C   0  0  0  0  0  0  0  0  0  0  0  0
    7.0476    0.5489    0.0000 C   0  0  0  0  0  0  0  0  0  0  0  0
    6.4989   -3.0002    0.0000 C   0  0  0  0  0  0  0  0  0  0  0  0
    5.1989   -3.7502    0.0000 C   0  0  0  0  0  0  0  0  0  0  0  0
    5.1989   -5.2502    0.0000 N   0  0  0  0  0  0  0  0  0  0  0  0
    6.4989   -6.0002    0.0000 C   0  0  0  0  0  0  0  0  0  0  0  0
    7.7978   -5.2500    0.0000 O   0  0  0  0  0  0  0  0  0  0  0  0
    6.4989   -7.5002    0.0000 N   0  0  0  0  0  0  0  0  0  0  0  0
    5.1989   -8.2502    0.0000 C   0  0  0  0  0  0  0  0  0  0  0  0
    5.1989   -9.7502    0.0000 O   0  0  0  0  0  0  0  0  0  0  0  0
    3.8989   -7.5002    0.0000 C   0  0  0  0  0  0  0  0  0  0  0  0
    3.8989   -6.0002    0.0000 C   0  0  0  0  0  0  0  0  0  0  0  0
    3.8989   -3.0002    0.0000 C   0  0  0  0  0  0  0  0  0  0  0  0
    2.6000    0.7500    0.0000 C   0  0  0  0  0  0  0  0  0  0  0  0
    1.3000    1.5000    0.0000 C   0  0  0  0  0  0  0  0  0  0  0  0
   -1.3000   -1.5000    0.0000 C   0  0  0  0  0  0  0  0  0  0  0  0
   -2.6000   -0.7500    0.0000 C   0  0  0  0  0  0  0  0  0  0  0  0
   -5.9479    2.0496    0.0000 C   0  0  0  0  0  0  0  0  0  0  0  0
   -1.3000   -3.0000    0.0000 O   0  0  0  0  0  0  0  0  0  0  0  0
  1  2  2  0  0  0  0
  1  3  2  0  0  0  0
  1  4  1  0  0  0  0
  4  5  1  0  0  0  0
  5  6  2  0  0  0  0
  6  7  1  0  0  0  0
  7  8  2  0  0  0  0
  8  9  1  0  0  0  0
  9 10  2  0  0  0  0
 10 11  1  0  0  0  0
 11 12  1  0  0  0  0
 12 13  1  0  0  0  0
 13 14  1  0  0  0  0
 12 15  2  0  0  0  0
 15 16  1  0  0  0  0
 16 17  1  0  0  0  0
 16 18  1  0  0  0  0
 16 19  1  0  0  0  0
 15 20  1  0  0  0  0
 20 21  2  0  0  0  0
 21 22  1  0  0  0  0
 22 23  1  0  0  0  0
 23 24  2  0  0  0  0
 23 25  1  0  0  0  0
 25 26  1  0  0  0  0
 26 27  2  0  0  0  0
 26 28  1  0  0  0  0
 28 29  2  0  0  0  0
 22 29  1  0  0  0  0
 21 30  1  0  0  0  0
 11 30  2  0  0  0  0
 10 31  1  0  0  0  0
 31 32  2  0  0  0  0
  7 32  1  0  0  0  0
  8 33  1  0  0  0  0
 33 34  2  0  0  0  0
  5 34  1  0  0  0  0
  1 35  1  0  0  0  0
 33 36  1  0  0  0  0
M  END
> <InChI>
InChI=1S/C26H27N3O6S/c1-26(2,3)21-14-18(29-9-8-23(31)27-25(29)32)13-20(24(21)35-4)16-7-6-15-10-17(28-36(5,33)34)12-22(30)19(15)11-16/h6-14,28,30H,1-5H3,(H,27,31,32)

> <InChIKey>
WORSHRJQJIXCOR-UHFFFAOYSA-N

> <SMILES>
S(=O)(=O)(NC1=CC2=C(C=C(C=3C(OC)=C(C(C)(C)C)C=C(N4C(=O)NC(=O)C=C4)C3)C=C2)C(=C1)O)C

> <Synonyms>


> <PUBCHEM_CID>


> <Molecular_formula>
C26H27N3O6S

> <Major_Isotope_Mass>
509.16205658399997

> <ALogP>
5.003700000000005

> <Lipinski_Violations>
2

> <Insecticide_Likeness_Violations>
1

> <Post_Em_Herbicide_Likeness_Violations>
1

> <Metabolite_ID>
BTM00005

> <Reaction>
Aromatic hydroxylation of fused benzene ring

> <Reaction_ID>
BTMR1031

> <Enzyme(s)>
CYP1A2
CYP2B6
CYP2C8
CYP2C9
CYP2C19
CYP2D6
CYP3A4

> <Biosystem>
HUMAN

> <Precursor_ID>
TEST0068_dasabuvir

> <Precursor_SMILES>
S(=O)(=O)(NC1=CC2=C(C=C(C=3C(OC)=C(C(C)(C)C)C=C(N4C(=O)NC(=O)C=C4)C3)C=C2)C=C1)C

> <Precursor_InChI>
InChI=1S/C26H27N3O5S/c1-26(2,3)22-15-20(29-11-10-23(30)27-25(29)31)14-21(24(22)34-4)18-7-6-17-13-19(28-35(5,32)33)9-8-16(17)12-18/h6-15,28H,1-5H3,(H,27,30,31)

> <Precursor_InChIKey>
NBRBXGKOEOGLOI-UHFFFAOYSA-N

> <Precursor_ALogP>
5.271100

> <Precursor_Major_Isotope_Mass>
493.1671

$$$$
BTM00006
  CDK     08072417442D

 36 39  0  0  0  0  0  0  0  0999 V2000
   -5.1981    0.7504    0.0000 S   0  0  0  0  0  0  0  0  0  0  0  0
   -6.4972    0.0006    0.0000 O   0  0  0  0  0  0  0  0  0  0  0  0
   -4.4483   -0.5487    0.0000 O   0  0  0  0  0  0  0  0  0  0  0  0
   -3.8989    1.5002    0.0000 N   0  0  0  0  0  0  0  0  0  0  0  0
   -2.6000    0.7500    0.0000 C   0  0  0  0  0  0  0  0  0  0  0  0
   -1.3000    1.5000    0.0000 C   0  0  0  0  0  0  0  0  0  0  0  0
    0.0000    0.7500    0.0000 C   0  0  0  0  0  0  0  0  0  0  0  0
    0.0000   -0.7500    0.0000 C   0  0  0  0  0  0  0  0  0  0  0  0
    1.3000   -1.5000    0.0000 C   0  0  0  0  0  0  0  0  0  0  0  0
    2.6000   -0.7500    0.0000 C   0  0  0  0  0  0  0  0  0  0  0  0
    3.8989   -1.5002    0.0000 C   0  0  0  0  0  0  0  0  0  0  0  0
    5.1989   -0.7502    0.0000 C   0  0  0  0  0  0  0  0  0  0  0  0
    5.1989    0.7498    0.0000 O   0  0  0  0  0  0  0  0  0  0  0  0
    6.4980    1.4998    0.0000 C   0  0  0  0  0  0  0  0  0  0  0  0
    6.4989   -1.5002    0.0000 C   0  0  0  0  0  0  0  0  0  0  0  0
    7.7978   -0.7500    0.0000 C   0  0  0  0  0  0  0  0  0  0  0  0
    8.5480   -2.0489    0.0000 C   0  0  0  0  0  0  0  0  0  0  0  0
    9.0968    0.0002    0.0000 C   0  0  0  0  0  0  0  0  0  0  0  0
    7.0476    0.5489    0.0000 C   0  0  0  0  0  0  0  0  0  0  0  0
    6.4989   -3.0002    0.0000 C   0  0  0  0  0  0  0  0  0  0  0  0
    5.1989   -3.7502    0.0000 C   0  0  0  0  0  0  0  0  0  0  0  0
    5.1989   -5.2502    0.0000 N   0  0  0  0  0  0  0  0  0  0  0  0
    6.4989   -6.0002    0.0000 C   0  0  0  0  0  0  0  0  0  0  0  0
    7.7978   -5.2500    0.0000 O   0  0  0  0  0  0  0  0  0  0  0  0
    6.4989   -7.5002    0.0000 N   0  0  0  0  0  0  0  0  0  0  0  0
    5.1989   -8.2502    0.0000 C   0  0  0  0  0  0  0  0  0  0  0  0
    5.1989   -9.7502    0.0000 O   0  0  0  0  0  0  0  0  0  0  0  0
    3.8989   -7.5002    0.0000 C   0  0  0  0  0  0  0  0  0  0  0  0
    3.8989   -6.0002    0.0000 C   0  0  0  0  0  0  0  0  0  0  0  0
    3.8989   -3.0002    0.0000 C   0  0  0  0  0  0  0  0  0  0  0  0
    2.6000    0.7500    0.0000 C   0  0  0  0  0  0  0  0  0  0  0  0
    1.3000    1.5000    0.0000 C   0  0  0  0  0  0  0  0  0  0  0  0
   -1.3000   -1.5000    0.0000 C   0  0  0  0  0  0  0  0  0  0  0  0
   -2.6000   -0.7500    0.0000 C   0  0  0  0  0  0  0  0  0  0  0  0
   -5.9479    2.0496    0.0000 C   0  0  0  0  0  0  0  0  0  0  0  0
   -1.3000    3.0000    0.0000 O   0  0  0  0  0  0  0  0  0  0  0  0
  1  2  2  0  0  0  0
  1  3  2  0  0  0  0
  1  4  1  0  0  0  0
  4  5  1  0  0  0  0
  5  6  2  0  0  0  0
  6  7  1  0  0  0  0
  7  8  2  0  0  0  0
  8  9  1  0  0  0  0
  9 10  2  0  0  0  0
 10 11  1  0  0  0  0
 11 12  1  0  0  0  0
 12 13  1  0  0  0  0
 13 14  1  0  0  0  0
 12 15  2  0  0  0  0
 15 16  1  0  0  0  0
 16 17  1  0  0  0  0
 16 18  1  0  0  0  0
 16 19  1  0  0  0  0
 15 20  1  0  0  0  0
 20 21  2  0  0  0  0
 21 22  1  0  0  0  0
 22 23  1  0  0  0  0
 23 24  2  0  0  0  0
 23 25  1  0  0  0  0
 25 26  1  0  0  0  0
 26 27  2  0  0  0  0
 26 28  1  0  0  0  0
 28 29  2  0  0  0  0
 22 29  1  0  0  0  0
 21 30  1  0  0  0  0
 11 30  2  0  0  0  0
 10 31  1  0  0  0  0
 31 32  2  0  0  0  0
  7 32  1  0  0  0  0
  8 33  1  0  0  0  0
 33 34  2  0  0  0  0
  5 34  1  0  0  0  0
  1 35  1  0  0  0  0
  6 36  1  0  0  0  0
M  END
> <InChI>
InChI=1S/C26H27N3O6S/c1-26(2,3)20-14-17(29-11-10-22(30)27-25(29)32)13-19(24(20)35-4)16-6-8-18-15(12-16)7-9-21(23(18)31)28-36(5,33)34/h6-14,28,31H,1-5H3,(H,27,30,32)

> <InChIKey>
MMRUYPASNSYXIA-UHFFFAOYSA-N

> <SMILES>
S(=O)(=O)(NC1=C(C2=C(C=C(C=3C(OC)=C(C(C)(C)C)C=C(N4C(=O)NC(=O)C=C4)C3)C=C2)C=C1)O)C

> <Synonyms>


> <PUBCHEM_CID>


> <Molecular_formula>
C26H27N3O6S

> <Major_Isotope_Mass>
509.16205658399997

> <ALogP>
5.003700000000005

> <Lipinski_Violations>
2

> <Insecticide_Likeness_Violations>
1

> <Post_Em_Herbicide_Likeness_Violations>
1

> <Metabolite_ID>
BTM00006

> <Reaction>
Aromatic hydroxylation of fused benzene ring

> <Reaction_ID>
BTMR1031

> <Enzyme(s)>
CYP1A2
CYP2B6
CYP2C8
CYP2C9
CYP2C19
CYP2D6
CYP3A4

> <Biosystem>
HUMAN

> <Precursor_ID>
TEST0068_dasabuvir

> <Precursor_SMILES>
S(=O)(=O)(NC1=CC2=C(C=C(C=3C(OC)=C(C(C)(C)C)C=C(N4C(=O)NC(=O)C=C4)C3)C=C2)C=C1)C

> <Precursor_InChI>
InChI=1S/C26H27N3O5S/c1-26(2,3)22-15-20(29-11-10-23(30)27-25(29)31)14-21(24(22)34-4)18-7-6-17-13-19(28-35(5,32)33)9-8-16(17)12-18/h6-15,28H,1-5H3,(H,27,30,31)

> <Precursor_InChIKey>
NBRBXGKOEOGLOI-UHFFFAOYSA-N

> <Precursor_ALogP>
5.271100

> <Precursor_Major_Isotope_Mass>
493.1671

$$$$
BTM00007
  CDK     08072417442D

 36 39  0  0  0  0  0  0  0  0999 V2000
   -5.1981    0.7504    0.0000 S   0  0  0  0  0  0  0  0  0  0  0  0
   -6.4972    0.0006    0.0000 O   0  0  0  0  0  0  0  0  0  0  0  0
   -4.4483   -0.5487    0.0000 O   0  0  0  0  0  0  0  0  0  0  0  0
   -3.8989    1.5002    0.0000 N   0  0  0  0  0  0  0  0  0  0  0  0
   -2.6000    0.7500    0.0000 C   0  0  0  0  0  0  0  0  0  0  0  0
   -1.3000    1.5000    0.0000 C   0  0  0  0  0  0  0  0  0  0  0  0
    0.0000    0.7500    0.0000 C   0  0  0  0  0  0  0  0  0  0  0  0
    0.0000   -0.7500    0.0000 C   0  0  0  0  0  0  0  0  0  0  0  0
    1.3000   -1.5000    0.0000 C   0  0  0  0  0  0  0  0  0  0  0  0
    2.6000   -0.7500    0.0000 C   0  0  0  0  0  0  0  0  0  0  0  0
    3.8989   -1.5002    0.0000 C   0  0  0  0  0  0  0  0  0  0  0  0
    5.1989   -0.7502    0.0000 C   0  0  0  0  0  0  0  0  0  0  0  0
    5.1989    0.7498    0.0000 O   0  0  0  0  0  0  0  0  0  0  0  0
    6.4980    1.4998    0.0000 C   0  0  0  0  0  0  0  0  0  0  0  0
    6.4989   -1.5002    0.0000 C   0  0  0  0  0  0  0  0  0  0  0  0
    7.7978   -0.7500    0.0000 C   0  0  0  0  0  0  0  0  0  0  0  0
    8.5480   -2.0489    0.0000 C   0  0  0  0  0  0  0  0  0  0  0  0
    9.0968    0.0002    0.0000 C   0  0  0  0  0  0  0  0  0  0  0  0
    7.0476    0.5489    0.0000 C   0  0  0  0  0  0  0  0  0  0  0  0
    6.4989   -3.0002    0.0000 C   0  0  0  0  0  0  0  0  0  0  0  0
    5.1989   -3.7502    0.0000 C   0  0  0  0  0  0  0  0  0  0  0  0
    5.1989   -5.2502    0.0000 N   0  0  0  0  0  0  0  0  0  0  0  0
    6.4989   -6.0002    0.0000 C   0  0  0  0  0  0  0  0  0  0  0  0
    7.7978   -5.2500    0.0000 O   0  0  0  0  0  0  0  0  0  0  0  0
    6.4989   -7.5002    0.0000 N   0  0  0  0  0  0  0  0  0  0  0  0
    5.1989   -8.2502    0.0000 C   0  0  0  0  0  0  0  0  0  0  0  0
    5.1989   -9.7502    0.0000 O   0  0  0  0  0  0  0  0  0  0  0  0
    3.8989   -7.5002    0.0000 C   0  0  0  0  0  0  0  0  0  0  0  0
    3.8989   -6.0002    0.0000 C   0  0  0  0  0  0  0  0  0  0  0  0
    3.8989   -3.0002    0.0000 C   0  0  0  0  0  0  0  0  0  0  0  0
    2.6000    0.7500    0.0000 C   0  0  0  0  0  0  0  0  0  0  0  0
    1.3000    1.5000    0.0000 C   0  0  0  0  0  0  0  0  0  0  0  0
   -1.3000   -1.5000    0.0000 C   0  0  0  0  0  0  0  0  0  0  0  0
   -2.6000   -0.7500    0.0000 C   0  0  0  0  0  0  0  0  0  0  0  0
   -5.9479    2.0496    0.0000 C   0  0  0  0  0  0  0  0  0  0  0  0
    1.3000   -3.0000    0.0000 O   0  0  0  0  0  0  0  0  0  0  0  0
  1  2  2  0  0  0  0
  1  3  2  0  0  0  0
  1  4  1  0  0  0  0
  4  5  1  0  0  0  0
  5  6  2  0  0  0  0
  6  7  1  0  0  0  0
  7  8  2  0  0  0  0
  8  9  1  0  0  0  0
  9 10  2  0  0  0  0
 10 11  1  0  0  0  0
 11 12  1  0  0  0  0
 12 13  1  0  0  0  0
 13 14  1  0  0  0  0
 12 15  2  0  0  0  0
 15 16  1  0  0  0  0
 16 17  1  0  0  0  0
 16 18  1  0  0  0  0
 16 19  1  0  0  0  0
 15 20  1  0  0  0  0
 20 21  2  0  0  0  0
 21 22  1  0  0  0  0
 22 23  1  0  0  0  0
 23 24  2  0  0  0  0
 23 25  1  0  0  0  0
 25 26  1  0  0  0  0
 26 27  2  0  0  0  0
 26 28  1  0  0  0  0
 28 29  2  0  0  0  0
 22 29  1  0  0  0  0
 21 30  1  0  0  0  0
 11 30  2  0  0  0  0
 10 31  1  0  0  0  0
 31 32  2  0  0  0  0
  7 32  1  0  0  0  0
  8 33  1  0  0  0  0
 33 34  2  0  0  0  0
  5 34  1  0  0  0  0
  1 35  1  0  0  0  0
  9 36  1  0  0  0  0
M  END
> <InChI>
InChI=1S/C26H27N3O6S/c1-26(2,3)21-14-17(29-11-10-22(30)27-25(29)32)13-20(24(21)35-4)19-8-6-15-12-16(28-36(5,33)34)7-9-18(15)23(19)31/h6-14,28,31H,1-5H3,(H,27,30,32)

> <InChIKey>
UHOPNKAAUBCSIQ-UHFFFAOYSA-N

> <SMILES>
S(=O)(=O)(NC1=CC2=C(C(=C(C=3C(OC)=C(C(C)(C)C)C=C(N4C(=O)NC(=O)C=C4)C3)C=C2)O)C=C1)C

> <Synonyms>


> <PUBCHEM_CID>


> <Molecular_formula>
C26H27N3O6S

> <Major_Isotope_Mass>
509.16205658399997

> <ALogP>
5.003700000000005

> <Lipinski_Violations>
2

> <Insecticide_Likeness_Violations>
1

> <Post_Em_Herbicide_Likeness_Violations>
1

> <Metabolite_ID>
BTM00007

> <Reaction>
Aromatic hydroxylation of fused benzene ring

> <Reaction_ID>
BTMR1031

> <Enzyme(s)>
CYP1A2
CYP2B6
CYP2C8
CYP2C9
CYP2C19
CYP2D6
CYP3A4

> <Biosystem>
HUMAN

> <Precursor_ID>
TEST0068_dasabuvir

> <Precursor_SMILES>
S(=O)(=O)(NC1=CC2=C(C=C(C=3C(OC)=C(C(C)(C)C)C=C(N4C(=O)NC(=O)C=C4)C3)C=C2)C=C1)C

> <Precursor_InChI>
InChI=1S/C26H27N3O5S/c1-26(2,3)22-15-20(29-11-10-23(30)27-25(29)31)14-21(24(22)34-4)18-7-6-17-13-19(28-35(5,32)33)9-8-16(17)12-18/h6-15,28H,1-5H3,(H,27,30,31)

> <Precursor_InChIKey>
NBRBXGKOEOGLOI-UHFFFAOYSA-N

> <Precursor_ALogP>
5.271100

> <Precursor_Major_Isotope_Mass>
493.1671

$$$$
BTM00008
  CDK     08072417442D

 36 39  0  0  0  0  0  0  0  0999 V2000
   -5.1981    0.7504    0.0000 S   0  0  0  0  0  0  0  0  0  0  0  0
   -6.4972    0.0006    0.0000 O   0  0  0  0  0  0  0  0  0  0  0  0
   -4.4483   -0.5487    0.0000 O   0  0  0  0  0  0  0  0  0  0  0  0
   -3.8989    1.5002    0.0000 N   0  0  0  0  0  0  0  0  0  0  0  0
   -2.6000    0.7500    0.0000 C   0  0  0  0  0  0  0  0  0  0  0  0
   -1.3000    1.5000    0.0000 C   0  0  0  0  0  0  0  0  0  0  0  0
    0.0000    0.7500    0.0000 C   0  0  0  0  0  0  0  0  0  0  0  0
    0.0000   -0.7500    0.0000 C   0  0  0  0  0  0  0  0  0  0  0  0
    1.3000   -1.5000    0.0000 C   0  0  0  0  0  0  0  0  0  0  0  0
    2.6000   -0.7500    0.0000 C   0  0  0  0  0  0  0  0  0  0  0  0
    3.8989   -1.5002    0.0000 C   0  0  0  0  0  0  0  0  0  0  0  0
    5.1989   -0.7502    0.0000 C   0  0  0  0  0  0  0  0  0  0  0  0
    5.1989    0.7498    0.0000 O   0  0  0  0  0  0  0  0  0  0  0  0
    6.4980    1.4998    0.0000 C   0  0  0  0  0  0  0  0  0  0  0  0
    6.4989   -1.5002    0.0000 C   0  0  0  0  0  0  0  0  0  0  0  0
    7.7978   -0.7500    0.0000 C   0  0  0  0  0  0  0  0  0  0  0  0
    8.7618    0.3992    0.0000 C   0  0  0  0  0  0  0  0  0  0  0  0
    6.8335    0.3989    0.0000 C   0  0  0  0  0  0  0  0  0  0  0  0
    9.0970   -1.4998    0.0000 C   0  0  0  0  0  0  0  0  0  0  0  0
    6.4989   -3.0002    0.0000 C   0  0  0  0  0  0  0  0  0  0  0  0
    5.1989   -3.7502    0.0000 C   0  0  0  0  0  0  0  0  0  0  0  0
    5.1989   -5.2502    0.0000 N   0  0  0  0  0  0  0  0  0  0  0  0
    6.4989   -6.0002    0.0000 C   0  0  0  0  0  0  0  0  0  0  0  0
    7.7978   -5.2500    0.0000 O   0  0  0  0  0  0  0  0  0  0  0  0
    6.4989   -7.5002    0.0000 N   0  0  0  0  0  0  0  0  0  0  0  0
    5.1989   -8.2502    0.0000 C   0  0  0  0  0  0  0  0  0  0  0  0
    5.1989   -9.7502    0.0000 O   0  0  0  0  0  0  0  0  0  0  0  0
    3.8989   -7.5002    0.0000 C   0  0  0  0  0  0  0  0  0  0  0  0
    3.8989   -6.0002    0.0000 C   0  0  0  0  0  0  0  0  0  0  0  0
    3.8989   -3.0002    0.0000 C   0  0  0  0  0  0  0  0  0  0  0  0
    2.6000    0.7500    0.0000 C   0  0  0  0  0  0  0  0  0  0  0  0
    1.3000    1.5000    0.0000 C   0  0  0  0  0  0  0  0  0  0  0  0
   -1.3000   -1.5000    0.0000 C   0  0  0  0  0  0  0  0  0  0  0  0
   -2.6000   -0.7500    0.0000 C   0  0  0  0  0  0  0  0  0  0  0  0
   -5.9479    2.0496    0.0000 C   0  0  0  0  0  0  0  0  0  0  0  0
   10.3959   -0.7496    0.0000 O   0  0  0  0  0  0  0  0  0  0  0  0
  1  2  2  0  0  0  0
  1  3  2  0  0  0  0
  1  4  1  0  0  0  0
  4  5  1  0  0  0  0
  5  6  2  0  0  0  0
  6  7  1  0  0  0  0
  7  8  2  0  0  0  0
  8  9  1  0  0  0  0
  9 10  2  0  0  0  0
 10 11  1  0  0  0  0
 11 12  1  0  0  0  0
 12 13  1  0  0  0  0
 13 14  1  0  0  0  0
 12 15  2  0  0  0  0
 15 16  1  0  0  0  0
 16 17  1  0  0  0  0
 16 18  1  0  0  0  0
 16 19  1  0  0  0  0
 15 20  1  0  0  0  0
 20 21  2  0  0  0  0
 21 22  1  0  0  0  0
 22 23  1  0  0  0  0
 23 24  2  0  0  0  0
 23 25  1  0  0  0  0
 25 26  1  0  0  0  0
 26 27  2  0  0  0  0
 26 28  1  0  0  0  0
 28 29  2  0  0  0  0
 22 29  1  0  0  0  0
 21 30  1  0  0  0  0
 11 30  2  0  0  0  0
 10 31  1  0  0  0  0
 31 32  2  0  0  0  0
  7 32  1  0  0  0  0
  8 33  1  0  0  0  0
 33 34  2  0  0  0  0
  5 34  1  0  0  0  0
  1 35  1  0  0  0  0
 36 19  1  0  0  0  0
M  END
> <InChI>
InChI=1S/C26H27N3O6S/c1-26(2,15-30)22-14-20(29-10-9-23(31)27-25(29)32)13-21(24(22)35-3)18-6-5-17-12-19(28-36(4,33)34)8-7-16(17)11-18/h5-14,28,30H,15H2,1-4H3,(H,27,31,32)

> <InChIKey>
QNBYHXKNWCQTLS-UHFFFAOYSA-N

> <SMILES>
S(=O)(=O)(NC1=CC2=C(C=C(C=3C(OC)=C(C(C)(C)CO)C=C(N4C(=O)NC(=O)C=C4)C3)C=C2)C=C1)C

> <Synonyms>


> <PUBCHEM_CID>


> <Molecular_formula>
C26H27N3O6S

> <Major_Isotope_Mass>
509.162056584

> <ALogP>
4.180400000000004

> <Lipinski_Violations>
1

> <Insecticide_Likeness_Violations>
1

> <Post_Em_Herbicide_Likeness_Violations>
1

> <Metabolite_ID>
BTM00008

> <Reaction>
Hydroxylation of terminal methyl

> <Reaction_ID>
BTMR1061

> <Enzyme(s)>
CYP1A2
CYP2A6
CYP2B6
CYP2C8
CYP2C9
CYP2C19
CYP2D6
CYP2E1
CYP3A4

> <Biosystem>
HUMAN

> <Precursor_ID>
TEST0068_dasabuvir

> <Precursor_SMILES>
S(=O)(=O)(NC1=CC2=C(C=C(C=3C(OC)=C(C(C)(C)C)C=C(N4C(=O)NC(=O)C=C4)C3)C=C2)C=C1)C

> <Precursor_InChI>
InChI=1S/C26H27N3O5S/c1-26(2,3)22-15-20(29-11-10-23(30)27-25(29)31)14-21(24(22)34-4)18-7-6-17-13-19(28-35(5,32)33)9-8-16(17)12-18/h6-15,28H,1-5H3,(H,27,30,31)

> <Precursor_InChIKey>
NBRBXGKOEOGLOI-UHFFFAOYSA-N

> <Precursor_ALogP>
5.271100

> <Precursor_Major_Isotope_Mass>
493.1671

$$$$
