BTM00001
  CDK     08072417412D

 22 23  0  0  0  0  0  0  0  0999 V2000
   -1.6322    2.2431    0.0000 Cl  0  0  0  0  0  0  0  0  0  0  0  0
   -0.7500    1.0300    0.0000 C   0  0  0  0  0  0  0  0  0  0  0  0
    0.7500    1.0300    0.0000 N   0  0  0  0  0  0  0  0  0  0  0  0
    1.2100   -0.3900    0.0000 C   0  0  0  0  0  0  0  0  0  0  0  0
    0.0000   -1.2800    0.0000 N   0  0  0  0  0  0  0  0  0  0  0  0
   -0.0000   -2.7800    0.0000 S   0  0  0  0  0  0  0  0  0  0  0  0
   -1.4772   -2.5195    0.0000 O   0  0  0  0  0  0  0  0  0  0  0  0
   -0.5130   -4.1895    0.0000 O   0  0  0  0  0  0  0  0  0  0  0  0
    1.2990   -3.5300    0.0000 N   0  0  0  0  0  0  0  0  0  0  0  0
    1.2990   -5.0300    0.0000 C   0  0  0  0  0  0  0  0  0  0  0  0
    2.5981   -2.7800    0.0000 C   0  0  0  0  0  0  0  0  0  0  0  0
   -1.2100   -0.3900    0.0000 C   0  0  0  0  0  0  0  0  0  0  0  0
   -2.6377   -0.8500    0.0000 C   0  0  0  0  0  0  0  0  0  0  0  0
   -2.9537   -2.3172    0.0000 C   0  0  0  0  0  0  0  0  0  0  0  0
   -4.3820   -2.7781    0.0000 C   0  0  0  0  0  0  0  0  0  0  0  0
   -5.4943   -1.7718    0.0000 C   0  0  0  0  0  0  0  0  0  0  0  0
   -5.1784   -0.3046    0.0000 C   0  0  0  0  0  0  0  0  0  0  0  0
   -3.7501    0.1563    0.0000 C   0  0  0  0  0  0  0  0  0  0  0  0
   -6.9221   -2.2318    0.0000 C   0  0  0  0  0  0  0  0  0  0  0  0
    2.6377   -0.8500    0.0000 C   0  0  0  0  0  0  0  0  0  0  0  0
    4.0655   -1.3099    0.0000 N   0  0  0  0  0  0  0  0  0  0  0  0
   -8.0343   -1.2253    0.0000 O   0  0  0  0  0  0  0  0  0  0  0  0
  1  2  1  0  0  0  0
  2  3  1  0  0  0  0
  3  4  2  0  0  0  0
  4  5  1  0  0  0  0
  5  6  1  0  0  0  0
  6  7  2  0  0  0  0
  6  8  2  0  0  0  0
  6  9  1  0  0  0  0
  9 10  1  0  0  0  0
  9 11  1  0  0  0  0
  5 12  1  0  0  0  0
  2 12  2  0  0  0  0
 12 13  1  0  0  0  0
 13 14  2  0  0  0  0
 14 15  1  0  0  0  0
 15 16  2  0  0  0  0
 16 17  1  0  0  0  0
 17 18  2  0  0  0  0
 13 18  1  0  0  0  0
 16 19  1  0  0  0  0
  4 20  1  0  0  0  0
 20 21  3  0  0  0  0
 22 19  1  0  0  0  0
M  END
> <InChI>
InChI=1S/C13H13ClN4O3S/c1-17(2)22(20,21)18-11(7-15)16-13(14)12(18)10-5-3-9(8-19)4-6-10/h3-6,19H,8H2,1-2H3

> <InChIKey>
SAAQRFKGMWZHIZ-UHFFFAOYSA-N

> <SMILES>
ClC=1N=C(N(S(=O)(=O)N(C)C)C1C2=CC=C(C=C2)CO)C#N

> <Synonyms>


> <PUBCHEM_CID>


> <Molecular_formula>
C13H13ClN4O3S

> <Major_Isotope_Mass>
340.03968895599996

> <ALogP>
1.4533999999999996

> <Lipinski_Violations>
0

> <Insecticide_Likeness_Violations>
0

> <Post_Em_Herbicide_Likeness_Violations>
0

> <Metabolite_ID>
BTM00001

> <Reaction>
Aliphatic hydroxylation of methyl carbon adjacent to aromatic ring

> <Reaction_ID>
BTMR1058

> <Enzyme(s)>
CYP1A2
CYP2A6
CYP2B6
CYP2C8
CYP2C9
CYP2C19
CYP2D6
CYP2E1
CYP3A4

> <Biosystem>
HUMAN

> <Precursor_ID>
TEST0036_Cyazofamid

> <Precursor_SMILES>
ClC=1N=C(N(S(=O)(=O)N(C)C)C1C2=CC=C(C=C2)C)C#N

> <Precursor_InChI>
InChI=1S/C13H13ClN4O2S/c1-9-4-6-10(7-5-9)12-13(14)16-11(8-15)18(12)21(19,20)17(2)3/h4-7H,1-3H3

> <Precursor_InChIKey>
YXKMMRDKEKCERS-UHFFFAOYSA-N

> <Precursor_ALogP>
2.544100

> <Precursor_Major_Isotope_Mass>
324.0447

$$$$
