BTM00001
  CDK     08072417432D

 25 27  0  0  1  0  0  0  0  0999 V2000
    5.5159   -8.6513    0.0000 Cl  0  0  0  0  0  0  0  0  0  0  0  0
    5.0506   -7.2253    0.0000 C   0  0  0  0  0  0  0  0  0  0  0  0
    3.5822   -6.9148    0.0000 C   0  0  0  0  0  0  0  0  0  0  0  0
    2.5801   -8.0309    0.0000 S   0  0  0  0  0  0  0  0  0  0  0  0
    1.5779   -9.1470    0.0000 O   0  0  0  0  0  0  0  0  0  0  0  0
    3.6962   -9.0330    0.0000 O   0  0  0  0  0  0  0  0  0  0  0  0
    1.4640   -7.0287    0.0000 N   0  0  0  0  0  0  0  0  0  0  0  0
    3.1160   -5.4882    0.0000 C   0  0  0  0  0  0  0  0  0  0  0  0
    4.1182   -4.3721    0.0000 C   0  0  0  0  0  0  0  0  0  0  0  0
    3.6529   -2.9461    0.0000 C   0  0  0  0  0  0  0  0  0  0  0  0
    4.6552   -1.8301    0.0000 O   0  0  0  0  0  0  0  0  0  0  0  0
    2.1853   -2.6360    0.0000 N   0  0  0  0  0  0  0  0  0  0  0  0
    1.7200   -1.2100    0.0000 N   0  0  0  0  0  0  0  0  0  0  0  0
    2.6000   -0.0000    0.0000 C   0  0  1  0  0  0  0  0  0  0  0  0
    1.7200    1.2100    0.0000 C   0  0  0  0  0  0  0  0  0  0  0  0
    0.2900    0.7500    0.0000 C   0  0  0  0  0  0  0  0  0  0  0  0
    0.2900   -0.7500    0.0000 C   0  0  0  0  0  0  0  0  0  0  0  0
   -1.0100   -1.5000    0.0000 C   0  0  0  0  0  0  0  0  0  0  0  0
   -2.3100   -0.7500    0.0000 C   0  0  0  0  0  0  0  0  0  0  0  0
   -2.3100    0.7500    0.0000 C   0  0  0  0  0  0  0  0  0  0  0  0
   -1.0100    1.5000    0.0000 C   0  0  0  0  0  0  0  0  0  0  0  0
    4.1000   -0.0000    0.0000 C   0  0  0  0  0  0  0  0  0  0  0  0
    5.5865   -4.6826    0.0000 C   0  0  0  0  0  0  0  0  0  0  0  0
    6.0527   -6.1091    0.0000 C   0  0  0  0  0  0  0  0  0  0  0  0
   -3.6089   -1.5002    0.0000 O   0  0  0  0  0  0  0  0  0  0  0  0
  1  2  1  0  0  0  0
  2  3  2  0  0  0  0
  3  4  1  0  0  0  0
  4  5  2  0  0  0  0
  4  6  2  0  0  0  0
  4  7  1  0  0  0  0
  3  8  1  0  0  0  0
  8  9  2  0  0  0  0
  9 10  1  0  0  0  0
 10 11  2  0  0  0  0
 10 12  1  0  0  0  0
 12 13  1  0  0  0  0
 13 14  1  0  0  0  0
 14 15  1  0  0  0  0
 15 16  1  0  0  0  0
 16 17  2  0  0  0  0
 13 17  1  0  0  0  0
 17 18  1  0  0  0  0
 18 19  2  0  0  0  0
 19 20  1  0  0  0  0
 20 21  2  0  0  0  0
 16 21  1  0  0  0  0
 14 22  1  1  0  0  0
  9 23  1  0  0  0  0
 23 24  2  0  0  0  0
  2 24  1  0  0  0  0
 25 19  1  0  0  0  0
M  END
> <InChI>
InChI=1S/C16H16ClN3O4S/c1-9-6-10-2-4-12(21)8-14(10)20(9)19-16(22)11-3-5-13(17)15(7-11)25(18,23)24/h2-5,7-9,21H,6H2,1H3,(H,19,22)(H2,18,23,24)/t9-/m1/s1

> <InChIKey>
WTVYCQPRCJOHMJ-SECBINFHSA-N

> <SMILES>
ClC1=C(S(=O)(=O)N)C=C(C(=O)NN2[C@@H](CC3=C2C=C(C=C3)O)C)C=C1

> <Synonyms>


> <PUBCHEM_CID>


> <Molecular_formula>
C16H16ClN3O4S

> <Major_Isotope_Mass>
381.055004672

> <ALogP>
2.3800999999999988

> <Lipinski_Violations>
0

> <Insecticide_Likeness_Violations>
1

> <Post_Em_Herbicide_Likeness_Violations>
1

> <Metabolite_ID>
BTM00001

> <Reaction>
Aromatic hydroxylation of fused benzene ring

> <Reaction_ID>
BTMR1030

> <Enzyme(s)>
CYP1A2
CYP2A6
CYP2B6
CYP2C8
CYP2C9
CYP2C19
CYP2D6
CYP2E1
CYP3A4

> <Biosystem>
HUMAN

> <Precursor_ID>
TEST0054_Indapamide

> <Precursor_SMILES>
ClC1=C(S(=O)(=O)N)C=C(C(=O)NN2[C@@H](CC3=C2C=CC=C3)C)C=C1

> <Precursor_InChI>
InChI=1S/C16H16ClN3O3S/c1-10-8-11-4-2-3-5-14(11)20(10)19-16(21)12-6-7-13(17)15(9-12)24(18,22)23/h2-7,9-10H,8H2,1H3,(H,19,21)(H2,18,22,23)/t10-/m1/s1

> <Precursor_InChIKey>
NDDAHWYSQHTHNT-SNVBAGLBSA-N

> <Precursor_ALogP>
2.647499

> <Precursor_Major_Isotope_Mass>
365.0600

$$$$
BTM00002
  CDK     08072417432D

 25 27  0  0  1  0  0  0  0  0999 V2000
    5.5159   -8.6513    0.0000 Cl  0  0  0  0  0  0  0  0  0  0  0  0
    5.0506   -7.2253    0.0000 C   0  0  0  0  0  0  0  0  0  0  0  0
    3.5822   -6.9148    0.0000 C   0  0  0  0  0  0  0  0  0  0  0  0
    2.5801   -8.0309    0.0000 S   0  0  0  0  0  0  0  0  0  0  0  0
    1.5779   -9.1470    0.0000 O   0  0  0  0  0  0  0  0  0  0  0  0
    3.6962   -9.0330    0.0000 O   0  0  0  0  0  0  0  0  0  0  0  0
    1.4640   -7.0287    0.0000 N   0  0  0  0  0  0  0  0  0  0  0  0
    3.1160   -5.4882    0.0000 C   0  0  0  0  0  0  0  0  0  0  0  0
    4.1182   -4.3721    0.0000 C   0  0  0  0  0  0  0  0  0  0  0  0
    3.6529   -2.9461    0.0000 C   0  0  0  0  0  0  0  0  0  0  0  0
    4.6552   -1.8301    0.0000 O   0  0  0  0  0  0  0  0  0  0  0  0
    2.1853   -2.6360    0.0000 N   0  0  0  0  0  0  0  0  0  0  0  0
    1.7200   -1.2100    0.0000 N   0  0  0  0  0  0  0  0  0  0  0  0
    2.6000   -0.0000    0.0000 C   0  0  1  0  0  0  0  0  0  0  0  0
    1.7200    1.2100    0.0000 C   0  0  0  0  0  0  0  0  0  0  0  0
    0.2900    0.7500    0.0000 C   0  0  0  0  0  0  0  0  0  0  0  0
    0.2900   -0.7500    0.0000 C   0  0  0  0  0  0  0  0  0  0  0  0
   -1.0100   -1.5000    0.0000 C   0  0  0  0  0  0  0  0  0  0  0  0
   -2.3100   -0.7500    0.0000 C   0  0  0  0  0  0  0  0  0  0  0  0
   -2.3100    0.7500    0.0000 C   0  0  0  0  0  0  0  0  0  0  0  0
   -1.0100    1.5000    0.0000 C   0  0  0  0  0  0  0  0  0  0  0  0
    4.1000   -0.0000    0.0000 C   0  0  0  0  0  0  0  0  0  0  0  0
    5.5865   -4.6826    0.0000 C   0  0  0  0  0  0  0  0  0  0  0  0
    6.0527   -6.1091    0.0000 C   0  0  0  0  0  0  0  0  0  0  0  0
   -3.6089    1.5002    0.0000 O   0  0  0  0  0  0  0  0  0  0  0  0
  1  2  1  0  0  0  0
  2  3  2  0  0  0  0
  3  4  1  0  0  0  0
  4  5  2  0  0  0  0
  4  6  2  0  0  0  0
  4  7  1  0  0  0  0
  3  8  1  0  0  0  0
  8  9  2  0  0  0  0
  9 10  1  0  0  0  0
 10 11  2  0  0  0  0
 10 12  1  0  0  0  0
 12 13  1  0  0  0  0
 13 14  1  0  0  0  0
 14 15  1  0  0  0  0
 15 16  1  0  0  0  0
 16 17  2  0  0  0  0
 13 17  1  0  0  0  0
 17 18  1  0  0  0  0
 18 19  2  0  0  0  0
 19 20  1  0  0  0  0
 20 21  2  0  0  0  0
 16 21  1  0  0  0  0
 14 22  1  1  0  0  0
  9 23  1  0  0  0  0
 23 24  2  0  0  0  0
  2 24  1  0  0  0  0
 25 20  1  0  0  0  0
M  END
> <InChI>
InChI=1S/C16H16ClN3O4S/c1-9-6-11-7-12(21)3-5-14(11)20(9)19-16(22)10-2-4-13(17)15(8-10)25(18,23)24/h2-5,7-9,21H,6H2,1H3,(H,19,22)(H2,18,23,24)/t9-/m1/s1

> <InChIKey>
ARPVNNMMMDXBBF-SECBINFHSA-N

> <SMILES>
ClC1=C(S(=O)(=O)N)C=C(C(=O)NN2[C@@H](CC3=C2C=CC(=C3)O)C)C=C1

> <Synonyms>


> <PUBCHEM_CID>


> <Molecular_formula>
C16H16ClN3O4S

> <Major_Isotope_Mass>
381.055004672

> <ALogP>
2.3800999999999988

> <Lipinski_Violations>
0

> <Insecticide_Likeness_Violations>
1

> <Post_Em_Herbicide_Likeness_Violations>
1

> <Metabolite_ID>
BTM00002

> <Reaction>
Aromatic hydroxylation of fused benzene ring

> <Reaction_ID>
BTMR1030

> <Enzyme(s)>
CYP1A2
CYP2A6
CYP2B6
CYP2C8
CYP2C9
CYP2C19
CYP2D6
CYP2E1
CYP3A4

> <Biosystem>
HUMAN

> <Precursor_ID>
TEST0054_Indapamide

> <Precursor_SMILES>
ClC1=C(S(=O)(=O)N)C=C(C(=O)NN2[C@@H](CC3=C2C=CC=C3)C)C=C1

> <Precursor_InChI>
InChI=1S/C16H16ClN3O3S/c1-10-8-11-4-2-3-5-14(11)20(10)19-16(21)12-6-7-13(17)15(9-12)24(18,22)23/h2-7,9-10H,8H2,1H3,(H,19,21)(H2,18,22,23)/t10-/m1/s1

> <Precursor_InChIKey>
NDDAHWYSQHTHNT-SNVBAGLBSA-N

> <Precursor_ALogP>
2.647499

> <Precursor_Major_Isotope_Mass>
365.0600

$$$$
BTM00003
  CDK     08072417432D

 25 26  0  0  0  0  0  0  0  0999 V2000
    4.9170    7.7278    0.0000 Cl  0  0  0  0  0  0  0  0  0  0  0  0
    3.6161    6.9811    0.0000 C   0  0  0  0  0  0  0  0  0  0  0  0
    3.6120    5.4802    0.0000 C   0  0  0  0  0  0  0  0  0  0  0  0
    4.9093    4.7272    0.0000 S   0  0  0  0  0  0  0  0  0  0  0  0
    6.2065    3.9741    0.0000 O   0  0  0  0  0  0  0  0  0  0  0  0
    5.6624    6.0244    0.0000 O   0  0  0  0  0  0  0  0  0  0  0  0
    4.1562    3.4299    0.0000 N   0  0  0  0  0  0  0  0  0  0  0  0
    2.3107    4.7325    0.0000 C   0  0  0  0  0  0  0  0  0  0  0  0
    1.0135    5.4856    0.0000 C   0  0  0  0  0  0  0  0  0  0  0  0
   -0.2875    4.7388    0.0000 C   0  0  0  0  0  0  0  0  0  0  0  0
   -0.2912    3.2388    0.0000 O   0  0  0  0  0  0  0  0  0  0  0  0
   -1.5846    5.4921    0.0000 N   0  0  0  0  0  0  0  0  0  0  0  0
   -2.8855    4.7454    0.0000 N   0  0  0  0  0  0  0  0  0  0  0  0
   -6.7404    2.4940    0.0000 C   0  0  0  0  0  0  0  0  0  0  0  0
   -5.4457    3.2515    0.0000 C   0  0  0  0  0  0  0  0  0  0  0  0
   -5.4543    4.7515    0.0000 C   0  0  0  0  0  0  0  0  0  0  0  0
   -4.1827    5.4987    0.0000 C   0  0  0  0  0  0  0  0  0  0  0  0
   -4.1637    6.9974    0.0000 C   0  0  0  0  0  0  0  0  0  0  0  0
   -5.4805    7.7158    0.0000 C   0  0  0  0  0  0  0  0  0  0  0  0
   -6.7521    6.9687    0.0000 C   0  0  0  0  0  0  0  0  0  0  0  0
   -6.7391    5.4865    0.0000 C   0  0  0  0  0  0  0  0  0  0  0  0
   -8.0437    3.2365    0.0000 C   0  0  0  0  0  0  0  0  0  0  0  0
    1.0175    6.9864    0.0000 C   0  0  0  0  0  0  0  0  0  0  0  0
    2.3188    7.7341    0.0000 C   0  0  0  0  0  0  0  0  0  0  0  0
   -6.7317    0.9941    0.0000 O   0  0  0  0  0  0  0  0  0  0  0  0
  1  2  1  0  0  0  0
  2  3  2  0  0  0  0
  3  4  1  0  0  0  0
  4  5  2  0  0  0  0
  4  6  2  0  0  0  0
  4  7  1  0  0  0  0
  3  8  1  0  0  0  0
  8  9  2  0  0  0  0
  9 10  1  0  0  0  0
 10 11  2  0  0  0  0
 10 12  1  0  0  0  0
 12 13  1  0  0  0  0
 14 15  1  0  0  0  0
 15 16  1  0  0  0  0
 16 17  2  0  0  0  0
 13 17  1  0  0  0  0
 17 18  1  0  0  0  0
 18 19  2  0  0  0  0
 19 20  1  0  0  0  0
 20 21  2  0  0  0  0
 16 21  1  0  0  0  0
 14 22  1  0  0  0  0
  9 23  1  0  0  0  0
 23 24  2  0  0  0  0
  2 24  1  0  0  0  0
 14 25  2  0  0  0  0
M  END
> <InChI>
InChI=1S/C16H16ClN3O4S/c1-10(21)8-11-4-2-3-5-14(11)19-20-16(22)12-6-7-13(17)15(9-12)25(18,23)24/h2-7,9,19H,8H2,1H3,(H,20,22)(H2,18,23,24)

> <InChIKey>
YJEYCUDRTILTPG-UHFFFAOYSA-N

> <SMILES>
ClC1=C(S(=O)(=O)N)C=C(C(=O)NNC2=C(CC(C)=O)C=CC=C2)C=C1

> <Synonyms>


> <PUBCHEM_CID>


> <Molecular_formula>
C16H16ClN3O4S

> <Major_Isotope_Mass>
381.055004672

> <ALogP>
1.466899999999999

> <Lipinski_Violations>
0

> <Insecticide_Likeness_Violations>
1

> <Post_Em_Herbicide_Likeness_Violations>
1

> <Metabolite_ID>
BTM00003

> <Reaction>
N-Dealkylation of hydrazide

> <Reaction_ID>
BTMR1152

> <Enzyme(s)>
CYP1A2
CYP2C8
CYP2C19
CYP2D6

> <Biosystem>
HUMAN

> <Precursor_ID>
TEST0054_Indapamide

> <Precursor_SMILES>
ClC1=C(S(=O)(=O)N)C=C(C(=O)NN2[C@@H](CC3=C2C=CC=C3)C)C=C1

> <Precursor_InChI>
InChI=1S/C16H16ClN3O3S/c1-10-8-11-4-2-3-5-14(11)20(10)19-16(21)12-6-7-13(17)15(9-12)24(18,22)23/h2-7,9-10H,8H2,1H3,(H,19,21)(H2,18,22,23)/t10-/m1/s1

> <Precursor_InChIKey>
NDDAHWYSQHTHNT-SNVBAGLBSA-N

> <Precursor_ALogP>
2.647499

> <Precursor_Major_Isotope_Mass>
365.0600

$$$$
BTM00004
  CDK     08072417432D

 25 27  0  0  1  0  0  0  0  0999 V2000
    5.5159   -8.6513    0.0000 Cl  0  0  0  0  0  0  0  0  0  0  0  0
    5.0506   -7.2253    0.0000 C   0  0  0  0  0  0  0  0  0  0  0  0
    3.5822   -6.9148    0.0000 C   0  0  0  0  0  0  0  0  0  0  0  0
    2.5801   -8.0309    0.0000 S   0  0  0  0  0  0  0  0  0  0  0  0
    1.5779   -9.1470    0.0000 O   0  0  0  0  0  0  0  0  0  0  0  0
    3.6962   -9.0330    0.0000 O   0  0  0  0  0  0  0  0  0  0  0  0
    1.4640   -7.0287    0.0000 N   0  0  0  0  0  0  0  0  0  0  0  0
    3.1160   -5.4882    0.0000 C   0  0  0  0  0  0  0  0  0  0  0  0
    4.1182   -4.3721    0.0000 C   0  0  0  0  0  0  0  0  0  0  0  0
    3.6529   -2.9461    0.0000 C   0  0  0  0  0  0  0  0  0  0  0  0
    4.6552   -1.8301    0.0000 O   0  0  0  0  0  0  0  0  0  0  0  0
    2.1853   -2.6360    0.0000 N   0  0  0  0  0  0  0  0  0  0  0  0
    1.7200   -1.2100    0.0000 N   0  0  0  0  0  0  0  0  0  0  0  0
    2.6000   -0.0000    0.0000 C   0  0  1  0  0  0  0  0  0  0  0  0
    1.7200    1.2100    0.0000 C   0  0  0  0  0  0  0  0  0  0  0  0
    0.2900    0.7500    0.0000 C   0  0  0  0  0  0  0  0  0  0  0  0
    0.2900   -0.7500    0.0000 C   0  0  0  0  0  0  0  0  0  0  0  0
   -1.0100   -1.5000    0.0000 C   0  0  0  0  0  0  0  0  0  0  0  0
   -2.3100   -0.7500    0.0000 C   0  0  0  0  0  0  0  0  0  0  0  0
   -2.3100    0.7500    0.0000 C   0  0  0  0  0  0  0  0  0  0  0  0
   -1.0100    1.5000    0.0000 C   0  0  0  0  0  0  0  0  0  0  0  0
    4.1000   -0.0000    0.0000 C   0  0  0  0  0  0  0  0  0  0  0  0
    5.5865   -4.6826    0.0000 C   0  0  0  0  0  0  0  0  0  0  0  0
    6.0527   -6.1091    0.0000 C   0  0  0  0  0  0  0  0  0  0  0  0
    2.1853    2.6360    0.0000 O   0  0  0  0  0  0  0  0  0  0  0  0
  1  2  1  0  0  0  0
  2  3  2  0  0  0  0
  3  4  1  0  0  0  0
  4  5  2  0  0  0  0
  4  6  2  0  0  0  0
  4  7  1  0  0  0  0
  3  8  1  0  0  0  0
  8  9  2  0  0  0  0
  9 10  1  0  0  0  0
 10 11  2  0  0  0  0
 10 12  1  0  0  0  0
 12 13  1  0  0  0  0
 13 14  1  0  0  0  0
 14 15  1  0  0  0  0
 15 16  1  0  0  0  0
 16 17  2  0  0  0  0
 13 17  1  0  0  0  0
 17 18  1  0  0  0  0
 18 19  2  0  0  0  0
 19 20  1  0  0  0  0
 20 21  2  0  0  0  0
 16 21  1  0  0  0  0
 14 22  1  1  0  0  0
  9 23  1  0  0  0  0
 23 24  2  0  0  0  0
  2 24  1  0  0  0  0
 25 15  1  0  0  0  0
M  END
> <InChI>
InChI=1S/C16H16ClN3O4S/c1-9-15(21)11-4-2-3-5-13(11)20(9)19-16(22)10-6-7-12(17)14(8-10)25(18,23)24/h2-9,15,21H,1H3,(H,19,22)(H2,18,23,24)/t9-,15?/m1/s1

> <InChIKey>
FYCAVKCNCMBUIZ-WXMRUQJCSA-N

> <SMILES>
ClC1=C(S(=O)(=O)N)C=C(C(=O)NN2[C@@H](C(C3=C2C=CC=C3)O)C)C=C1

> <Synonyms>


> <PUBCHEM_CID>


> <Molecular_formula>
C16H16ClN3O4S

> <Major_Isotope_Mass>
381.05500467199994

> <ALogP>
1.8155999999999994

> <Lipinski_Violations>
0

> <Insecticide_Likeness_Violations>
1

> <Post_Em_Herbicide_Likeness_Violations>
1

> <Metabolite_ID>
BTM00004

> <Reaction>
Hydroxylation of heteroalicyclic secondary carbon

> <Reaction_ID>
BTMR1071

> <Enzyme(s)>
CYP1A2

> <Biosystem>
HUMAN

> <Precursor_ID>
TEST0054_Indapamide

> <Precursor_SMILES>
ClC1=C(S(=O)(=O)N)C=C(C(=O)NN2[C@@H](CC3=C2C=CC=C3)C)C=C1

> <Precursor_InChI>
InChI=1S/C16H16ClN3O3S/c1-10-8-11-4-2-3-5-14(11)20(10)19-16(21)12-6-7-13(17)15(9-12)24(18,22)23/h2-7,9-10H,8H2,1H3,(H,19,21)(H2,18,22,23)/t10-/m1/s1

> <Precursor_InChIKey>
NDDAHWYSQHTHNT-SNVBAGLBSA-N

> <Precursor_ALogP>
2.647499

> <Precursor_Major_Isotope_Mass>
365.0600

$$$$
BTM00005
  CDK     08072417432D

 25 27  0  0  1  0  0  0  0  0999 V2000
    5.5159   -8.6513    0.0000 Cl  0  0  0  0  0  0  0  0  0  0  0  0
    5.0506   -7.2253    0.0000 C   0  0  0  0  0  0  0  0  0  0  0  0
    3.5822   -6.9148    0.0000 C   0  0  0  0  0  0  0  0  0  0  0  0
    2.5801   -8.0309    0.0000 S   0  0  0  0  0  0  0  0  0  0  0  0
    1.5779   -9.1470    0.0000 O   0  0  0  0  0  0  0  0  0  0  0  0
    3.6962   -9.0330    0.0000 O   0  0  0  0  0  0  0  0  0  0  0  0
    1.4640   -7.0287    0.0000 N   0  0  0  0  0  0  0  0  0  0  0  0
    3.1160   -5.4882    0.0000 C   0  0  0  0  0  0  0  0  0  0  0  0
    4.1182   -4.3721    0.0000 C   0  0  0  0  0  0  0  0  0  0  0  0
    3.6529   -2.9461    0.0000 C   0  0  0  0  0  0  0  0  0  0  0  0
    4.6552   -1.8301    0.0000 O   0  0  0  0  0  0  0  0  0  0  0  0
    2.1853   -2.6360    0.0000 N   0  0  0  0  0  0  0  0  0  0  0  0
    1.7200   -1.2100    0.0000 N   0  0  0  0  0  0  0  0  0  0  0  0
    2.6000   -0.0000    0.0000 C   0  0  1  0  0  0  0  0  0  0  0  0
    1.7200    1.2100    0.0000 C   0  0  0  0  0  0  0  0  0  0  0  0
    0.2900    0.7500    0.0000 C   0  0  0  0  0  0  0  0  0  0  0  0
    0.2900   -0.7500    0.0000 C   0  0  0  0  0  0  0  0  0  0  0  0
   -1.0100   -1.5000    0.0000 C   0  0  0  0  0  0  0  0  0  0  0  0
   -2.3100   -0.7500    0.0000 C   0  0  0  0  0  0  0  0  0  0  0  0
   -2.3100    0.7500    0.0000 C   0  0  0  0  0  0  0  0  0  0  0  0
   -1.0100    1.5000    0.0000 C   0  0  0  0  0  0  0  0  0  0  0  0
    4.1000   -0.0000    0.0000 C   0  0  0  0  0  0  0  0  0  0  0  0
    5.5865   -4.6826    0.0000 C   0  0  0  0  0  0  0  0  0  0  0  0
    6.0527   -6.1091    0.0000 C   0  0  0  0  0  0  0  0  0  0  0  0
   -1.0100   -3.0000    0.0000 O   0  0  0  0  0  0  0  0  0  0  0  0
  1  2  1  0  0  0  0
  2  3  2  0  0  0  0
  3  4  1  0  0  0  0
  4  5  2  0  0  0  0
  4  6  2  0  0  0  0
  4  7  1  0  0  0  0
  3  8  1  0  0  0  0
  8  9  2  0  0  0  0
  9 10  1  0  0  0  0
 10 11  2  0  0  0  0
 10 12  1  0  0  0  0
 12 13  1  0  0  0  0
 13 14  1  0  0  0  0
 14 15  1  0  0  0  0
 15 16  1  0  0  0  0
 16 17  2  0  0  0  0
 13 17  1  0  0  0  0
 17 18  1  0  0  0  0
 18 19  2  0  0  0  0
 19 20  1  0  0  0  0
 20 21  2  0  0  0  0
 16 21  1  0  0  0  0
 14 22  1  1  0  0  0
  9 23  1  0  0  0  0
 23 24  2  0  0  0  0
  2 24  1  0  0  0  0
 18 25  1  0  0  0  0
M  END
> <InChI>
InChI=1S/C16H16ClN3O4S/c1-9-7-10-3-2-4-13(21)15(10)20(9)19-16(22)11-5-6-12(17)14(8-11)25(18,23)24/h2-6,8-9,21H,7H2,1H3,(H,19,22)(H2,18,23,24)/t9-/m1/s1

> <InChIKey>
AARGZWVUIHKDEX-SECBINFHSA-N

> <SMILES>
ClC1=C(S(=O)(=O)N)C=C(C(=O)NN2[C@@H](CC3=C2C(=CC=C3)O)C)C=C1

> <Synonyms>


> <PUBCHEM_CID>


> <Molecular_formula>
C16H16ClN3O4S

> <Major_Isotope_Mass>
381.05500467200005

> <ALogP>
2.3800999999999988

> <Lipinski_Violations>
0

> <Insecticide_Likeness_Violations>
1

> <Post_Em_Herbicide_Likeness_Violations>
1

> <Metabolite_ID>
BTM00005

> <Reaction>
Aromatic hydroxylation of fused benzene ring

> <Reaction_ID>
BTMR1031

> <Enzyme(s)>
CYP1A2
CYP2B6
CYP2C8
CYP2C9
CYP2C19
CYP2D6
CYP3A4

> <Biosystem>
HUMAN

> <Precursor_ID>
TEST0054_Indapamide

> <Precursor_SMILES>
ClC1=C(S(=O)(=O)N)C=C(C(=O)NN2[C@@H](CC3=C2C=CC=C3)C)C=C1

> <Precursor_InChI>
InChI=1S/C16H16ClN3O3S/c1-10-8-11-4-2-3-5-14(11)20(10)19-16(21)12-6-7-13(17)15(9-12)24(18,22)23/h2-7,9-10H,8H2,1H3,(H,19,21)(H2,18,22,23)/t10-/m1/s1

> <Precursor_InChIKey>
NDDAHWYSQHTHNT-SNVBAGLBSA-N

> <Precursor_ALogP>
2.647499

> <Precursor_Major_Isotope_Mass>
365.0600

$$$$
BTM00006
  CDK     08072417432D

 25 27  0  0  1  0  0  0  0  0999 V2000
    5.5159   -8.6513    0.0000 Cl  0  0  0  0  0  0  0  0  0  0  0  0
    5.0506   -7.2253    0.0000 C   0  0  0  0  0  0  0  0  0  0  0  0
    3.5822   -6.9148    0.0000 C   0  0  0  0  0  0  0  0  0  0  0  0
    2.5801   -8.0309    0.0000 S   0  0  0  0  0  0  0  0  0  0  0  0
    1.5779   -9.1470    0.0000 O   0  0  0  0  0  0  0  0  0  0  0  0
    3.6962   -9.0330    0.0000 O   0  0  0  0  0  0  0  0  0  0  0  0
    1.4640   -7.0287    0.0000 N   0  0  0  0  0  0  0  0  0  0  0  0
    3.1160   -5.4882    0.0000 C   0  0  0  0  0  0  0  0  0  0  0  0
    4.1182   -4.3721    0.0000 C   0  0  0  0  0  0  0  0  0  0  0  0
    3.6529   -2.9461    0.0000 C   0  0  0  0  0  0  0  0  0  0  0  0
    4.6552   -1.8301    0.0000 O   0  0  0  0  0  0  0  0  0  0  0  0
    2.1853   -2.6360    0.0000 N   0  0  0  0  0  0  0  0  0  0  0  0
    1.7200   -1.2100    0.0000 N   0  0  0  0  0  0  0  0  0  0  0  0
    2.6000   -0.0000    0.0000 C   0  0  1  0  0  0  0  0  0  0  0  0
    1.7200    1.2100    0.0000 C   0  0  0  0  0  0  0  0  0  0  0  0
    0.2900    0.7500    0.0000 C   0  0  0  0  0  0  0  0  0  0  0  0
    0.2900   -0.7500    0.0000 C   0  0  0  0  0  0  0  0  0  0  0  0
   -1.0100   -1.5000    0.0000 C   0  0  0  0  0  0  0  0  0  0  0  0
   -2.3100   -0.7500    0.0000 C   0  0  0  0  0  0  0  0  0  0  0  0
   -2.3100    0.7500    0.0000 C   0  0  0  0  0  0  0  0  0  0  0  0
   -1.0100    1.5000    0.0000 C   0  0  0  0  0  0  0  0  0  0  0  0
    4.1000   -0.0000    0.0000 C   0  0  0  0  0  0  0  0  0  0  0  0
    5.5865   -4.6826    0.0000 C   0  0  0  0  0  0  0  0  0  0  0  0
    6.0527   -6.1091    0.0000 C   0  0  0  0  0  0  0  0  0  0  0  0
   -1.0100    3.0000    0.0000 O   0  0  0  0  0  0  0  0  0  0  0  0
  1  2  1  0  0  0  0
  2  3  2  0  0  0  0
  3  4  1  0  0  0  0
  4  5  2  0  0  0  0
  4  6  2  0  0  0  0
  4  7  1  0  0  0  0
  3  8  1  0  0  0  0
  8  9  2  0  0  0  0
  9 10  1  0  0  0  0
 10 11  2  0  0  0  0
 10 12  1  0  0  0  0
 12 13  1  0  0  0  0
 13 14  1  0  0  0  0
 14 15  1  0  0  0  0
 15 16  1  0  0  0  0
 16 17  2  0  0  0  0
 13 17  1  0  0  0  0
 17 18  1  0  0  0  0
 18 19  2  0  0  0  0
 19 20  1  0  0  0  0
 20 21  2  0  0  0  0
 16 21  1  0  0  0  0
 14 22  1  1  0  0  0
  9 23  1  0  0  0  0
 23 24  2  0  0  0  0
  2 24  1  0  0  0  0
 21 25  1  0  0  0  0
M  END
> <InChI>
InChI=1S/C16H16ClN3O4S/c1-9-7-11-13(3-2-4-14(11)21)20(9)19-16(22)10-5-6-12(17)15(8-10)25(18,23)24/h2-6,8-9,21H,7H2,1H3,(H,19,22)(H2,18,23,24)/t9-/m1/s1

> <InChIKey>
KKJDQIRBKWOXIS-SECBINFHSA-N

> <SMILES>
ClC1=C(S(=O)(=O)N)C=C(C(=O)NN2[C@@H](CC3=C2C=CC=C3O)C)C=C1

> <Synonyms>


> <PUBCHEM_CID>


> <Molecular_formula>
C16H16ClN3O4S

> <Major_Isotope_Mass>
381.055004672

> <ALogP>
2.3800999999999988

> <Lipinski_Violations>
0

> <Insecticide_Likeness_Violations>
1

> <Post_Em_Herbicide_Likeness_Violations>
1

> <Metabolite_ID>
BTM00006

> <Reaction>
Aromatic hydroxylation of fused benzene ring

> <Reaction_ID>
BTMR1032

> <Enzyme(s)>
CYP1A2
CYP2B6
CYP2C8
CYP2C9
CYP2C19
CYP2D6
CYP3A4

> <Biosystem>
HUMAN

> <Precursor_ID>
TEST0054_Indapamide

> <Precursor_SMILES>
ClC1=C(S(=O)(=O)N)C=C(C(=O)NN2[C@@H](CC3=C2C=CC=C3)C)C=C1

> <Precursor_InChI>
InChI=1S/C16H16ClN3O3S/c1-10-8-11-4-2-3-5-14(11)20(10)19-16(21)12-6-7-13(17)15(9-12)24(18,22)23/h2-7,9-10H,8H2,1H3,(H,19,21)(H2,18,22,23)/t10-/m1/s1

> <Precursor_InChIKey>
NDDAHWYSQHTHNT-SNVBAGLBSA-N

> <Precursor_ALogP>
2.647499

> <Precursor_Major_Isotope_Mass>
365.0600

$$$$
BTM00007
  CDK     08072417432D

 25 27  0  0  1  0  0  0  0  0999 V2000
    5.5159   -8.6513    0.0000 Cl  0  0  0  0  0  0  0  0  0  0  0  0
    5.0506   -7.2253    0.0000 C   0  0  0  0  0  0  0  0  0  0  0  0
    3.5822   -6.9148    0.0000 C   0  0  0  0  0  0  0  0  0  0  0  0
    2.5801   -8.0309    0.0000 S   0  0  0  0  0  0  0  0  0  0  0  0
    1.5779   -9.1470    0.0000 O   0  0  0  0  0  0  0  0  0  0  0  0
    3.6962   -9.0330    0.0000 O   0  0  0  0  0  0  0  0  0  0  0  0
    1.4640   -7.0287    0.0000 N   0  0  0  0  0  0  0  0  0  0  0  0
    3.1160   -5.4882    0.0000 C   0  0  0  0  0  0  0  0  0  0  0  0
    4.1182   -4.3721    0.0000 C   0  0  0  0  0  0  0  0  0  0  0  0
    3.6529   -2.9461    0.0000 C   0  0  0  0  0  0  0  0  0  0  0  0
    4.6552   -1.8301    0.0000 O   0  0  0  0  0  0  0  0  0  0  0  0
    2.1853   -2.6360    0.0000 N   0  0  0  0  0  0  0  0  0  0  0  0
    1.7200   -1.2100    0.0000 N   0  0  0  0  0  0  0  0  0  0  0  0
    2.6000   -0.0000    0.0000 C   0  0  1  0  0  0  0  0  0  0  0  0
    1.7200    1.2100    0.0000 C   0  0  0  0  0  0  0  0  0  0  0  0
    0.2900    0.7500    0.0000 C   0  0  0  0  0  0  0  0  0  0  0  0
    0.2900   -0.7500    0.0000 C   0  0  0  0  0  0  0  0  0  0  0  0
   -1.0100   -1.5000    0.0000 C   0  0  0  0  0  0  0  0  0  0  0  0
   -2.3100   -0.7500    0.0000 C   0  0  0  0  0  0  0  0  0  0  0  0
   -2.3100    0.7500    0.0000 C   0  0  0  0  0  0  0  0  0  0  0  0
   -1.0100    1.5000    0.0000 C   0  0  0  0  0  0  0  0  0  0  0  0
    4.1000   -0.0000    0.0000 C   0  0  0  0  0  0  0  0  0  0  0  0
    5.5865   -4.6826    0.0000 C   0  0  0  0  0  0  0  0  0  0  0  0
    6.0527   -6.1091    0.0000 C   0  0  0  0  0  0  0  0  0  0  0  0
    7.5205   -6.4187    0.0000 O   0  0  0  0  0  0  0  0  0  0  0  0
  1  2  1  0  0  0  0
  2  3  2  0  0  0  0
  3  4  1  0  0  0  0
  4  5  2  0  0  0  0
  4  6  2  0  0  0  0
  4  7  1  0  0  0  0
  3  8  1  0  0  0  0
  8  9  2  0  0  0  0
  9 10  1  0  0  0  0
 10 11  2  0  0  0  0
 10 12  1  0  0  0  0
 12 13  1  0  0  0  0
 13 14  1  0  0  0  0
 14 15  1  0  0  0  0
 15 16  1  0  0  0  0
 16 17  2  0  0  0  0
 13 17  1  0  0  0  0
 17 18  1  0  0  0  0
 18 19  2  0  0  0  0
 19 20  1  0  0  0  0
 20 21  2  0  0  0  0
 16 21  1  0  0  0  0
 14 22  1  1  0  0  0
  9 23  1  0  0  0  0
 23 24  2  0  0  0  0
  2 24  1  0  0  0  0
 25 24  1  0  0  0  0
M  END
> <InChI>
InChI=1S/C16H16ClN3O4S/c1-9-6-10-4-2-3-5-12(10)20(9)19-16(22)11-7-13(21)15(17)14(8-11)25(18,23)24/h2-5,7-9,21H,6H2,1H3,(H,19,22)(H2,18,23,24)/t9-/m1/s1

> <InChIKey>
MICUONQQACZBFJ-SECBINFHSA-N

> <SMILES>
ClC1=C(S(=O)(=O)N)C=C(C(=O)NN2[C@@H](CC3=C2C=CC=C3)C)C=C1O

> <Synonyms>


> <PUBCHEM_CID>


> <Molecular_formula>
C16H16ClN3O4S

> <Major_Isotope_Mass>
381.055004672

> <ALogP>
2.3800999999999988

> <Lipinski_Violations>
0

> <Insecticide_Likeness_Violations>
1

> <Post_Em_Herbicide_Likeness_Violations>
1

> <Metabolite_ID>
BTM00007

> <Reaction>
Hydroxylation of aromatic carbon ortho to halide group

> <Reaction_ID>
BTMR1040

> <Enzyme(s)>
CYP1A2
CYP2A6
CYP2B6
CYP2C8
CYP2C9
CYP2C19
CYP2D6
CYP2E1
CYP3A4

> <Biosystem>
HUMAN

> <Precursor_ID>
TEST0054_Indapamide

> <Precursor_SMILES>
ClC1=C(S(=O)(=O)N)C=C(C(=O)NN2[C@@H](CC3=C2C=CC=C3)C)C=C1

> <Precursor_InChI>
InChI=1S/C16H16ClN3O3S/c1-10-8-11-4-2-3-5-14(11)20(10)19-16(21)12-6-7-13(17)15(9-12)24(18,22)23/h2-7,9-10H,8H2,1H3,(H,19,21)(H2,18,22,23)/t10-/m1/s1

> <Precursor_InChIKey>
NDDAHWYSQHTHNT-SNVBAGLBSA-N

> <Precursor_ALogP>
2.647499

> <Precursor_Major_Isotope_Mass>
365.0600

$$$$
BTM00008
  CDK     08072417432D

 25 27  0  0  1  0  0  0  0  0999 V2000
    5.5159   -8.6513    0.0000 Cl  0  0  0  0  0  0  0  0  0  0  0  0
    5.0506   -7.2253    0.0000 C   0  0  0  0  0  0  0  0  0  0  0  0
    3.5822   -6.9148    0.0000 C   0  0  0  0  0  0  0  0  0  0  0  0
    2.5801   -8.0309    0.0000 S   0  0  0  0  0  0  0  0  0  0  0  0
    1.5779   -9.1470    0.0000 O   0  0  0  0  0  0  0  0  0  0  0  0
    3.6962   -9.0330    0.0000 O   0  0  0  0  0  0  0  0  0  0  0  0
    1.4640   -7.0287    0.0000 N   0  0  0  0  0  0  0  0  0  0  0  0
    3.1160   -5.4882    0.0000 C   0  0  0  0  0  0  0  0  0  0  0  0
    4.1182   -4.3721    0.0000 C   0  0  0  0  0  0  0  0  0  0  0  0
    3.6529   -2.9461    0.0000 C   0  0  0  0  0  0  0  0  0  0  0  0
    4.6552   -1.8301    0.0000 O   0  0  0  0  0  0  0  0  0  0  0  0
    2.1853   -2.6360    0.0000 N   0  0  0  0  0  0  0  0  0  0  0  0
    1.7200   -1.2100    0.0000 N   0  0  0  0  0  0  0  0  0  0  0  0
    2.6000   -0.0000    0.0000 C   0  0  1  0  0  0  0  0  0  0  0  0
    1.7200    1.2100    0.0000 C   0  0  0  0  0  0  0  0  0  0  0  0
    0.2900    0.7500    0.0000 C   0  0  0  0  0  0  0  0  0  0  0  0
    0.2900   -0.7500    0.0000 C   0  0  0  0  0  0  0  0  0  0  0  0
   -1.0100   -1.5000    0.0000 C   0  0  0  0  0  0  0  0  0  0  0  0
   -2.3100   -0.7500    0.0000 C   0  0  0  0  0  0  0  0  0  0  0  0
   -2.3100    0.7500    0.0000 C   0  0  0  0  0  0  0  0  0  0  0  0
   -1.0100    1.5000    0.0000 C   0  0  0  0  0  0  0  0  0  0  0  0
    4.1000   -0.0000    0.0000 C   0  0  0  0  0  0  0  0  0  0  0  0
    5.5865   -4.6826    0.0000 C   0  0  0  0  0  0  0  0  0  0  0  0
    6.0527   -6.1091    0.0000 C   0  0  0  0  0  0  0  0  0  0  0  0
    1.6483   -5.1786    0.0000 O   0  0  0  0  0  0  0  0  0  0  0  0
  1  2  1  0  0  0  0
  2  3  2  0  0  0  0
  3  4  1  0  0  0  0
  4  5  2  0  0  0  0
  4  6  2  0  0  0  0
  4  7  1  0  0  0  0
  3  8  1  0  0  0  0
  8  9  2  0  0  0  0
  9 10  1  0  0  0  0
 10 11  2  0  0  0  0
 10 12  1  0  0  0  0
 12 13  1  0  0  0  0
 13 14  1  0  0  0  0
 14 15  1  0  0  0  0
 15 16  1  0  0  0  0
 16 17  2  0  0  0  0
 13 17  1  0  0  0  0
 17 18  1  0  0  0  0
 18 19  2  0  0  0  0
 19 20  1  0  0  0  0
 20 21  2  0  0  0  0
 16 21  1  0  0  0  0
 14 22  1  1  0  0  0
  9 23  1  0  0  0  0
 23 24  2  0  0  0  0
  2 24  1  0  0  0  0
 25  8  1  0  0  0  0
M  END
> <InChI>
InChI=1S/C16H16ClN3O4S/c1-9-8-10-4-2-3-5-13(10)20(9)19-16(22)11-6-7-12(17)15(14(11)21)25(18,23)24/h2-7,9,21H,8H2,1H3,(H,19,22)(H2,18,23,24)/t9-/m1/s1

> <InChIKey>
DNFVMETUWWSIEO-SECBINFHSA-N

> <SMILES>
ClC1=C(S(=O)(=O)N)C(=C(C(=O)NN2[C@@H](CC3=C2C=CC=C3)C)C=C1)O

> <Synonyms>


> <PUBCHEM_CID>


> <Molecular_formula>
C16H16ClN3O4S

> <Major_Isotope_Mass>
381.055004672

> <ALogP>
2.3800999999999988

> <Lipinski_Violations>
0

> <Insecticide_Likeness_Violations>
1

> <Post_Em_Herbicide_Likeness_Violations>
1

> <Metabolite_ID>
BTM00008

> <Reaction>
Hydroxylation of aromatic carbon meta to halide group

> <Reaction_ID>
BTMR1039

> <Enzyme(s)>
CYP2A6
CYP2B6
CYP2C9
CYP2C19
CYP2E1
CYP3A4

> <Biosystem>
HUMAN

> <Precursor_ID>
TEST0054_Indapamide

> <Precursor_SMILES>
ClC1=C(S(=O)(=O)N)C=C(C(=O)NN2[C@@H](CC3=C2C=CC=C3)C)C=C1

> <Precursor_InChI>
InChI=1S/C16H16ClN3O3S/c1-10-8-11-4-2-3-5-14(11)20(10)19-16(21)12-6-7-13(17)15(9-12)24(18,22)23/h2-7,9-10H,8H2,1H3,(H,19,21)(H2,18,22,23)/t10-/m1/s1

> <Precursor_InChIKey>
NDDAHWYSQHTHNT-SNVBAGLBSA-N

> <Precursor_ALogP>
2.647499

> <Precursor_Major_Isotope_Mass>
365.0600

$$$$
BTM00009
  CDK     08072417432D

 25 27  0  0  1  0  0  0  0  0999 V2000
    5.5159   -8.6513    0.0000 Cl  0  0  0  0  0  0  0  0  0  0  0  0
    5.0506   -7.2253    0.0000 C   0  0  0  0  0  0  0  0  0  0  0  0
    3.5822   -6.9148    0.0000 C   0  0  0  0  0  0  0  0  0  0  0  0
    2.5801   -8.0309    0.0000 S   0  0  0  0  0  0  0  0  0  0  0  0
    1.5779   -9.1470    0.0000 O   0  0  0  0  0  0  0  0  0  0  0  0
    3.6962   -9.0330    0.0000 O   0  0  0  0  0  0  0  0  0  0  0  0
    1.4640   -7.0287    0.0000 N   0  0  0  0  0  0  0  0  0  0  0  0
    3.1160   -5.4882    0.0000 C   0  0  0  0  0  0  0  0  0  0  0  0
    4.1182   -4.3721    0.0000 C   0  0  0  0  0  0  0  0  0  0  0  0
    3.6529   -2.9461    0.0000 C   0  0  0  0  0  0  0  0  0  0  0  0
    4.6552   -1.8301    0.0000 O   0  0  0  0  0  0  0  0  0  0  0  0
    2.1853   -2.6360    0.0000 N   0  0  0  0  0  0  0  0  0  0  0  0
    1.7200   -1.2100    0.0000 N   0  0  0  0  0  0  0  0  0  0  0  0
    2.6000   -0.0000    0.0000 C   0  0  1  0  0  0  0  0  0  0  0  0
    1.7200    1.2100    0.0000 C   0  0  0  0  0  0  0  0  0  0  0  0
    0.2900    0.7500    0.0000 C   0  0  0  0  0  0  0  0  0  0  0  0
    0.2900   -0.7500    0.0000 C   0  0  0  0  0  0  0  0  0  0  0  0
   -1.0100   -1.5000    0.0000 C   0  0  0  0  0  0  0  0  0  0  0  0
   -2.3100   -0.7500    0.0000 C   0  0  0  0  0  0  0  0  0  0  0  0
   -2.3100    0.7500    0.0000 C   0  0  0  0  0  0  0  0  0  0  0  0
   -1.0100    1.5000    0.0000 C   0  0  0  0  0  0  0  0  0  0  0  0
    4.1000   -0.0000    0.0000 C   0  0  0  0  0  0  0  0  0  0  0  0
    5.5865   -4.6826    0.0000 C   0  0  0  0  0  0  0  0  0  0  0  0
    6.0527   -6.1091    0.0000 C   0  0  0  0  0  0  0  0  0  0  0  0
    6.5887   -3.5665    0.0000 O   0  0  0  0  0  0  0  0  0  0  0  0
  1  2  1  0  0  0  0
  2  3  2  0  0  0  0
  3  4  1  0  0  0  0
  4  5  2  0  0  0  0
  4  6  2  0  0  0  0
  4  7  1  0  0  0  0
  3  8  1  0  0  0  0
  8  9  2  0  0  0  0
  9 10  1  0  0  0  0
 10 11  2  0  0  0  0
 10 12  1  0  0  0  0
 12 13  1  0  0  0  0
 13 14  1  0  0  0  0
 14 15  1  0  0  0  0
 15 16  1  0  0  0  0
 16 17  2  0  0  0  0
 13 17  1  0  0  0  0
 17 18  1  0  0  0  0
 18 19  2  0  0  0  0
 19 20  1  0  0  0  0
 20 21  2  0  0  0  0
 16 21  1  0  0  0  0
 14 22  1  1  0  0  0
  9 23  1  0  0  0  0
 23 24  2  0  0  0  0
  2 24  1  0  0  0  0
 25 23  1  0  0  0  0
M  END
> <InChI>
InChI=1S/C16H16ClN3O4S/c1-9-6-10-4-2-3-5-13(10)20(9)19-16(22)11-7-15(25(18,23)24)12(17)8-14(11)21/h2-5,7-9,21H,6H2,1H3,(H,19,22)(H2,18,23,24)/t9-/m1/s1

> <InChIKey>
KYJHRYJDKMYILT-SECBINFHSA-N

> <SMILES>
ClC1=C(S(=O)(=O)N)C=C(C(=O)NN2[C@@H](CC3=C2C=CC=C3)C)C(=C1)O

> <Synonyms>


> <PUBCHEM_CID>


> <Molecular_formula>
C16H16ClN3O4S

> <Major_Isotope_Mass>
381.055004672

> <ALogP>
2.3800999999999988

> <Lipinski_Violations>
0

> <Insecticide_Likeness_Violations>
1

> <Post_Em_Herbicide_Likeness_Violations>
1

> <Metabolite_ID>
BTM00009

> <Reaction>
Hydroxylation of aromatic carbon meta to halide group

> <Reaction_ID>
BTMR1039

> <Enzyme(s)>
CYP2A6
CYP2B6
CYP2C9
CYP2C19
CYP2E1
CYP3A4

> <Biosystem>
HUMAN

> <Precursor_ID>
TEST0054_Indapamide

> <Precursor_SMILES>
ClC1=C(S(=O)(=O)N)C=C(C(=O)NN2[C@@H](CC3=C2C=CC=C3)C)C=C1

> <Precursor_InChI>
InChI=1S/C16H16ClN3O3S/c1-10-8-11-4-2-3-5-14(11)20(10)19-16(21)12-6-7-13(17)15(9-12)24(18,22)23/h2-7,9-10H,8H2,1H3,(H,19,21)(H2,18,22,23)/t10-/m1/s1

> <Precursor_InChIKey>
NDDAHWYSQHTHNT-SNVBAGLBSA-N

> <Precursor_ALogP>
2.647499

> <Precursor_Major_Isotope_Mass>
365.0600

$$$$
BTM00010
  CDK     08072417432D

 25 27  0  0  1  0  0  0  0  0999 V2000
    5.5159   -8.6513    0.0000 Cl  0  0  0  0  0  0  0  0  0  0  0  0
    5.0506   -7.2253    0.0000 C   0  0  0  0  0  0  0  0  0  0  0  0
    3.5822   -6.9148    0.0000 C   0  0  0  0  0  0  0  0  0  0  0  0
    2.5801   -8.0309    0.0000 S   0  0  0  0  0  0  0  0  0  0  0  0
    1.5779   -9.1470    0.0000 O   0  0  0  0  0  0  0  0  0  0  0  0
    3.6962   -9.0330    0.0000 O   0  0  0  0  0  0  0  0  0  0  0  0
    1.4640   -7.0287    0.0000 N   0  0  0  0  0  0  0  0  0  0  0  0
    3.1160   -5.4882    0.0000 C   0  0  0  0  0  0  0  0  0  0  0  0
    4.1182   -4.3721    0.0000 C   0  0  0  0  0  0  0  0  0  0  0  0
    3.6529   -2.9461    0.0000 C   0  0  0  0  0  0  0  0  0  0  0  0
    4.6552   -1.8301    0.0000 O   0  0  0  0  0  0  0  0  0  0  0  0
    2.1853   -2.6360    0.0000 N   0  0  0  0  0  0  0  0  0  0  0  0
    1.7200   -1.2100    0.0000 N   0  0  0  0  0  0  0  0  0  0  0  0
    2.6000   -0.0000    0.0000 C   0  0  1  0  0  0  0  0  0  0  0  0
    1.7200    1.2100    0.0000 C   0  0  0  0  0  0  0  0  0  0  0  0
    0.2900    0.7500    0.0000 C   0  0  0  0  0  0  0  0  0  0  0  0
    0.2900   -0.7500    0.0000 C   0  0  0  0  0  0  0  0  0  0  0  0
   -1.0100   -1.5000    0.0000 C   0  0  0  0  0  0  0  0  0  0  0  0
   -2.3100   -0.7500    0.0000 C   0  0  0  0  0  0  0  0  0  0  0  0
   -2.3100    0.7500    0.0000 C   0  0  0  0  0  0  0  0  0  0  0  0
   -1.0100    1.5000    0.0000 C   0  0  0  0  0  0  0  0  0  0  0  0
    4.1000   -0.0000    0.0000 C   0  0  0  0  0  0  0  0  0  0  0  0
    5.5865   -4.6826    0.0000 C   0  0  0  0  0  0  0  0  0  0  0  0
    6.0527   -6.1091    0.0000 C   0  0  0  0  0  0  0  0  0  0  0  0
    4.8500    1.2990    0.0000 O   0  0  0  0  0  0  0  0  0  0  0  0
  1  2  1  0  0  0  0
  2  3  2  0  0  0  0
  3  4  1  0  0  0  0
  4  5  2  0  0  0  0
  4  6  2  0  0  0  0
  4  7  1  0  0  0  0
  3  8  1  0  0  0  0
  8  9  2  0  0  0  0
  9 10  1  0  0  0  0
 10 11  2  0  0  0  0
 10 12  1  0  0  0  0
 12 13  1  0  0  0  0
 13 14  1  0  0  0  0
 14 15  1  0  0  0  0
 15 16  1  0  0  0  0
 16 17  2  0  0  0  0
 13 17  1  0  0  0  0
 17 18  1  0  0  0  0
 18 19  2  0  0  0  0
 19 20  1  0  0  0  0
 20 21  2  0  0  0  0
 16 21  1  0  0  0  0
 14 22  1  1  0  0  0
  9 23  1  0  0  0  0
 23 24  2  0  0  0  0
  2 24  1  0  0  0  0
 25 22  1  0  0  0  0
M  END
> <InChI>
InChI=1S/C16H16ClN3O4S/c17-13-6-5-11(8-15(13)25(18,23)24)16(22)19-20-12(9-21)7-10-3-1-2-4-14(10)20/h1-6,8,12,21H,7,9H2,(H,19,22)(H2,18,23,24)/t12-/m0/s1

> <InChIKey>
MCLQMOWRYVDOBV-LBPRGKRZSA-N

> <SMILES>
ClC1=C(S(=O)(=O)N)C=C(C(=O)NN2[C@@H](CC3=C2C=CC=C3)CO)C=C1

> <Synonyms>


> <PUBCHEM_CID>


> <Molecular_formula>
C16H16ClN3O4S

> <Major_Isotope_Mass>
381.055004672

> <ALogP>
1.7593

> <Lipinski_Violations>
0

> <Insecticide_Likeness_Violations>
1

> <Post_Em_Herbicide_Likeness_Violations>
1

> <Metabolite_ID>
BTM00010

> <Reaction>
Hydroxylation of methyl carbon adjacent to aliphatic ring

> <Reaction_ID>
BTMR0054

> <Enzyme(s)>
CYP2B6
CYP2C8
CYP2C9
CYP2C19
CYP2D6
CYP3A4

> <Biosystem>
HUMAN

> <Precursor_ID>
TEST0054_Indapamide

> <Precursor_SMILES>
ClC1=C(S(=O)(=O)N)C=C(C(=O)NN2[C@@H](CC3=C2C=CC=C3)C)C=C1

> <Precursor_InChI>
InChI=1S/C16H16ClN3O3S/c1-10-8-11-4-2-3-5-14(11)20(10)19-16(21)12-6-7-13(17)15(9-12)24(18,22)23/h2-7,9-10H,8H2,1H3,(H,19,21)(H2,18,22,23)/t10-/m1/s1

> <Precursor_InChIKey>
NDDAHWYSQHTHNT-SNVBAGLBSA-N

> <Precursor_ALogP>
2.647499

> <Precursor_Major_Isotope_Mass>
365.0600

$$$$
