BTM00001
  CDK     08072417422D

 18 20  0  0  1  0  0  0  0  0999 V2000
   -0.5755   -3.4420    0.0000 F   0  0  0  0  0  0  0  0  0  0  0  0
    0.8920   -3.7523    0.0000 C   0  0  0  0  0  0  0  0  0  0  0  0
    1.8953   -2.6360    0.0000 C   0  0  0  0  0  0  0  0  0  0  0  0
    1.4300   -1.2100    0.0000 C   0  0  2  0  0  0  0  0  0  0  0  0
    0.0000   -0.7500    0.0000 N   0  0  0  0  0  0  0  0  0  0  0  0
    0.0000    0.7500    0.0000 C   0  0  0  0  0  0  0  0  0  0  0  0
    1.4300    1.2100    0.0000 C   0  0  0  0  0  0  0  0  0  0  0  0
    2.3100    0.0000    0.0000 C   0  0  0  0  0  0  0  0  0  0  0  0
   -1.4300    1.2100    0.0000 C   0  0  0  0  0  0  0  0  0  0  0  0
   -2.3100    0.0000    0.0000 N   0  0  0  0  0  0  0  0  0  0  0  0
   -1.4300   -1.2100    0.0000 C   0  0  0  0  0  0  0  0  0  0  0  0
    3.3638   -2.9458    0.0000 C   0  0  0  0  0  0  0  0  0  0  0  0
    3.8291   -4.3718    0.0000 C   0  0  0  0  0  0  0  0  0  0  0  0
    2.8258   -5.4880    0.0000 C   0  0  0  0  0  0  0  0  0  0  0  0
    1.3573   -5.1783    0.0000 C   0  0  0  0  0  0  0  0  0  0  0  0
    3.2911   -6.9141    0.0000 C   0  0  0  0  0  0  0  0  0  0  0  0
    3.7564   -8.3401    0.0000 N   0  0  0  0  0  0  0  0  0  0  0  0
    5.2966   -4.6821    0.0000 O   0  0  0  0  0  0  0  0  0  0  0  0
  1  2  1  0  0  0  0
  2  3  2  0  0  0  0
  4  3  1  6  0  0  0
  4  5  1  0  0  0  0
  5  6  1  0  0  0  0
  6  7  1  0  0  0  0
  7  8  1  0  0  0  0
  4  8  1  0  0  0  0
  6  9  2  0  0  0  0
  9 10  1  0  0  0  0
 10 11  2  0  0  0  0
  5 11  1  0  0  0  0
  3 12  1  0  0  0  0
 12 13  2  0  0  0  0
 13 14  1  0  0  0  0
 14 15  2  0  0  0  0
  2 15  1  0  0  0  0
 14 16  1  0  0  0  0
 16 17  3  0  0  0  0
 18 13  1  0  0  0  0
M  END
> <InChI>
InChI=1S/C13H10FN3O/c14-11-3-8(5-15)13(18)4-10(11)12-2-1-9-6-16-7-17(9)12/h3-4,6-7,12,18H,1-2H2/t12-/m1/s1

> <InChIKey>
DGZGOMBHRBLFNY-GFCCVEGCSA-N

> <SMILES>
FC1=C([C@@H]2N3C(CC2)=CN=C3)C=C(C(=C1)C#N)O

> <Synonyms>


> <PUBCHEM_CID>


> <Molecular_formula>
C13H10FN3O

> <Major_Isotope_Mass>
243.08079016

> <ALogP>
1.7531999999999999

> <Lipinski_Violations>
0

> <Insecticide_Likeness_Violations>
0

> <Post_Em_Herbicide_Likeness_Violations>
0

> <Metabolite_ID>
BTM00001

> <Reaction>
Hydroxylation of aromatic carbon para to halide group

> <Reaction_ID>
BTMR1041

> <Enzyme(s)>
CYP1A2
CYP2E1
CYP3A4

> <Biosystem>
HUMAN

> <Precursor_ID>
TEST0043_osilodrostat

> <Precursor_SMILES>
FC1=C([C@@H]2N3C(CC2)=CN=C3)C=CC(=C1)C#N

> <Precursor_InChI>
InChI=1S/C13H10FN3/c14-12-5-9(6-15)1-3-11(12)13-4-2-10-7-16-8-17(10)13/h1,3,5,7-8,13H,2,4H2/t13-/m1/s1

> <Precursor_InChIKey>
USUZGMWDZDXMDG-CYBMUJFWSA-N

> <Precursor_ALogP>
2.020599

> <Precursor_Major_Isotope_Mass>
227.0858

$$$$
BTM00002
  CDK     08072417422D

 18 20  0  0  1  0  0  0  0  0999 V2000
   -0.5755   -3.4420    0.0000 F   0  0  0  0  0  0  0  0  0  0  0  0
    0.8920   -3.7523    0.0000 C   0  0  0  0  0  0  0  0  0  0  0  0
    1.8953   -2.6360    0.0000 C   0  0  0  0  0  0  0  0  0  0  0  0
    1.4300   -1.2100    0.0000 C   0  0  2  0  0  0  0  0  0  0  0  0
    0.0000   -0.7500    0.0000 N   0  0  0  0  0  0  0  0  0  0  0  0
    0.0000    0.7500    0.0000 C   0  0  0  0  0  0  0  0  0  0  0  0
    1.4300    1.2100    0.0000 C   0  0  0  0  0  0  0  0  0  0  0  0
    2.3100    0.0000    0.0000 C   0  0  0  0  0  0  0  0  0  0  0  0
   -1.4300    1.2100    0.0000 C   0  0  0  0  0  0  0  0  0  0  0  0
   -2.3100    0.0000    0.0000 N   0  0  0  0  0  0  0  0  0  0  0  0
   -1.4300   -1.2100    0.0000 C   0  0  0  0  0  0  0  0  0  0  0  0
    3.3638   -2.9458    0.0000 C   0  0  0  0  0  0  0  0  0  0  0  0
    3.8291   -4.3718    0.0000 C   0  0  0  0  0  0  0  0  0  0  0  0
    2.8258   -5.4880    0.0000 C   0  0  0  0  0  0  0  0  0  0  0  0
    1.3573   -5.1783    0.0000 C   0  0  0  0  0  0  0  0  0  0  0  0
    3.2911   -6.9141    0.0000 C   0  0  0  0  0  0  0  0  0  0  0  0
    3.7564   -8.3401    0.0000 N   0  0  0  0  0  0  0  0  0  0  0  0
    1.8953    2.6360    0.0000 O   0  0  0  0  0  0  0  0  0  0  0  0
  1  2  1  0  0  0  0
  2  3  2  0  0  0  0
  4  3  1  6  0  0  0
  4  5  1  0  0  0  0
  5  6  1  0  0  0  0
  6  7  1  0  0  0  0
  7  8  1  0  0  0  0
  4  8  1  0  0  0  0
  6  9  2  0  0  0  0
  9 10  1  0  0  0  0
 10 11  2  0  0  0  0
  5 11  1  0  0  0  0
  3 12  1  0  0  0  0
 12 13  2  0  0  0  0
 13 14  1  0  0  0  0
 14 15  2  0  0  0  0
  2 15  1  0  0  0  0
 14 16  1  0  0  0  0
 16 17  3  0  0  0  0
 18  7  1  0  0  0  0
M  END
> <InChI>
InChI=1S/C13H10FN3O/c14-10-3-8(5-15)1-2-9(10)11-4-13(18)12-6-16-7-17(11)12/h1-3,6-7,11,13,18H,4H2/t11-,13?/m1/s1

> <InChIKey>
JLHSPEKQQQSAPV-JTDNENJMSA-N

> <SMILES>
FC1=C([C@@H]2N3C(C(C2)O)=CN=C3)C=CC(=C1)C#N

> <Synonyms>


> <PUBCHEM_CID>


> <Molecular_formula>
C13H10FN3O

> <Major_Isotope_Mass>
243.08079016

> <ALogP>
1.2163

> <Lipinski_Violations>
0

> <Insecticide_Likeness_Violations>
0

> <Post_Em_Herbicide_Likeness_Violations>
0

> <Metabolite_ID>
BTM00002

> <Reaction>
Hydroxylation of heteroalicyclic secondary carbon

> <Reaction_ID>
BTMR1071

> <Enzyme(s)>
CYP1A2

> <Biosystem>
HUMAN

> <Precursor_ID>
TEST0043_osilodrostat

> <Precursor_SMILES>
FC1=C([C@@H]2N3C(CC2)=CN=C3)C=CC(=C1)C#N

> <Precursor_InChI>
InChI=1S/C13H10FN3/c14-12-5-9(6-15)1-3-11(12)13-4-2-10-7-16-8-17(10)13/h1,3,5,7-8,13H,2,4H2/t13-/m1/s1

> <Precursor_InChIKey>
USUZGMWDZDXMDG-CYBMUJFWSA-N

> <Precursor_ALogP>
2.020599

> <Precursor_Major_Isotope_Mass>
227.0858

$$$$
BTM00003
  CDK     08072417422D

 18 20  0  0  1  0  0  0  0  0999 V2000
   -0.5755   -3.4420    0.0000 F   0  0  0  0  0  0  0  0  0  0  0  0
    0.8920   -3.7523    0.0000 C   0  0  0  0  0  0  0  0  0  0  0  0
    1.8953   -2.6360    0.0000 C   0  0  0  0  0  0  0  0  0  0  0  0
    1.4300   -1.2100    0.0000 C   0  0  2  0  0  0  0  0  0  0  0  0
    0.0000   -0.7500    0.0000 N   0  0  0  0  0  0  0  0  0  0  0  0
    0.0000    0.7500    0.0000 C   0  0  0  0  0  0  0  0  0  0  0  0
    1.4300    1.2100    0.0000 C   0  0  0  0  0  0  0  0  0  0  0  0
    2.3100    0.0000    0.0000 C   0  0  0  0  0  0  0  0  0  0  0  0
   -1.4300    1.2100    0.0000 C   0  0  0  0  0  0  0  0  0  0  0  0
   -2.3100    0.0000    0.0000 N   0  0  0  0  0  0  0  0  0  0  0  0
   -1.4300   -1.2100    0.0000 C   0  0  0  0  0  0  0  0  0  0  0  0
    3.3638   -2.9458    0.0000 C   0  0  0  0  0  0  0  0  0  0  0  0
    3.8291   -4.3718    0.0000 C   0  0  0  0  0  0  0  0  0  0  0  0
    2.8258   -5.4880    0.0000 C   0  0  0  0  0  0  0  0  0  0  0  0
    1.3573   -5.1783    0.0000 C   0  0  0  0  0  0  0  0  0  0  0  0
    3.2911   -6.9141    0.0000 C   0  0  0  0  0  0  0  0  0  0  0  0
    3.7564   -8.3401    0.0000 N   0  0  0  0  0  0  0  0  0  0  0  0
    3.8100   -0.0000    0.0000 O   0  0  0  0  0  0  0  0  0  0  0  0
  1  2  1  0  0  0  0
  2  3  2  0  0  0  0
  4  3  1  6  0  0  0
  4  5  1  0  0  0  0
  5  6  1  0  0  0  0
  6  7  1  0  0  0  0
  7  8  1  0  0  0  0
  4  8  1  0  0  0  0
  6  9  2  0  0  0  0
  9 10  1  0  0  0  0
 10 11  2  0  0  0  0
  5 11  1  0  0  0  0
  3 12  1  0  0  0  0
 12 13  2  0  0  0  0
 13 14  1  0  0  0  0
 14 15  2  0  0  0  0
  2 15  1  0  0  0  0
 14 16  1  0  0  0  0
 16 17  3  0  0  0  0
 18  8  1  0  0  0  0
M  END
> <InChI>
InChI=1S/C13H10FN3O/c14-11-3-8(5-15)1-2-10(11)13-12(18)4-9-6-16-7-17(9)13/h1-3,6-7,12-13,18H,4H2/t12?,13-/m0/s1

> <InChIKey>
LZYYONVSPYVKTH-ABLWVSNPSA-N

> <SMILES>
FC1=C([C@@H]2N3C(CC2O)=CN=C3)C=CC(=C1)C#N

> <Synonyms>


> <PUBCHEM_CID>


> <Molecular_formula>
C13H10FN3O

> <Major_Isotope_Mass>
243.08079016

> <ALogP>
1.1887

> <Lipinski_Violations>
0

> <Insecticide_Likeness_Violations>
0

> <Post_Em_Herbicide_Likeness_Violations>
0

> <Metabolite_ID>
BTM00003

> <Reaction>
Hydroxylation of heteroalicyclic secondary carbon

> <Reaction_ID>
BTMR1071

> <Enzyme(s)>
CYP1A2

> <Biosystem>
HUMAN

> <Precursor_ID>
TEST0043_osilodrostat

> <Precursor_SMILES>
FC1=C([C@@H]2N3C(CC2)=CN=C3)C=CC(=C1)C#N

> <Precursor_InChI>
InChI=1S/C13H10FN3/c14-12-5-9(6-15)1-3-11(12)13-4-2-10-7-16-8-17(10)13/h1,3,5,7-8,13H,2,4H2/t13-/m1/s1

> <Precursor_InChIKey>
USUZGMWDZDXMDG-CYBMUJFWSA-N

> <Precursor_ALogP>
2.020599

> <Precursor_Major_Isotope_Mass>
227.0858

$$$$
BTM00004
  CDK     08072417422D

 18 20  0  0  1  0  0  0  0  0999 V2000
   -0.5755   -3.4420    0.0000 F   0  0  0  0  0  0  0  0  0  0  0  0
    0.8920   -3.7523    0.0000 C   0  0  0  0  0  0  0  0  0  0  0  0
    1.8953   -2.6360    0.0000 C   0  0  0  0  0  0  0  0  0  0  0  0
    1.4300   -1.2100    0.0000 C   0  0  2  0  0  0  0  0  0  0  0  0
    0.0000   -0.7500    0.0000 N   0  0  0  0  0  0  0  0  0  0  0  0
    0.0000    0.7500    0.0000 C   0  0  0  0  0  0  0  0  0  0  0  0
    1.4300    1.2100    0.0000 C   0  0  0  0  0  0  0  0  0  0  0  0
    2.3100    0.0000    0.0000 C   0  0  0  0  0  0  0  0  0  0  0  0
   -1.4300    1.2100    0.0000 C   0  0  0  0  0  0  0  0  0  0  0  0
   -2.3100    0.0000    0.0000 N   0  0  0  0  0  0  0  0  0  0  0  0
   -1.4300   -1.2100    0.0000 C   0  0  0  0  0  0  0  0  0  0  0  0
    3.3638   -2.9458    0.0000 C   0  0  0  0  0  0  0  0  0  0  0  0
    3.8291   -4.3718    0.0000 C   0  0  0  0  0  0  0  0  0  0  0  0
    2.8258   -5.4880    0.0000 C   0  0  0  0  0  0  0  0  0  0  0  0
    1.3573   -5.1783    0.0000 C   0  0  0  0  0  0  0  0  0  0  0  0
    3.2911   -6.9141    0.0000 C   0  0  0  0  0  0  0  0  0  0  0  0
    3.7564   -8.3401    0.0000 N   0  0  0  0  0  0  0  0  0  0  0  0
    0.3552   -6.2944    0.0000 O   0  0  0  0  0  0  0  0  0  0  0  0
  1  2  1  0  0  0  0
  2  3  2  0  0  0  0
  4  3  1  6  0  0  0
  4  5  1  0  0  0  0
  5  6  1  0  0  0  0
  6  7  1  0  0  0  0
  7  8  1  0  0  0  0
  4  8  1  0  0  0  0
  6  9  2  0  0  0  0
  9 10  1  0  0  0  0
 10 11  2  0  0  0  0
  5 11  1  0  0  0  0
  3 12  1  0  0  0  0
 12 13  2  0  0  0  0
 13 14  1  0  0  0  0
 14 15  2  0  0  0  0
  2 15  1  0  0  0  0
 14 16  1  0  0  0  0
 16 17  3  0  0  0  0
 18 15  1  0  0  0  0
M  END
> <InChI>
InChI=1S/C13H10FN3O/c14-12-10(3-1-8(5-15)13(12)18)11-4-2-9-6-16-7-17(9)11/h1,3,6-7,11,18H,2,4H2/t11-/m1/s1

> <InChIKey>
ARXLXUJDPKMBHK-LLVKDONJSA-N

> <SMILES>
FC1=C([C@@H]2N3C(CC2)=CN=C3)C=CC(=C1O)C#N

> <Synonyms>


> <PUBCHEM_CID>


> <Molecular_formula>
C13H10FN3O

> <Major_Isotope_Mass>
243.08079016

> <ALogP>
1.7531999999999999

> <Lipinski_Violations>
0

> <Insecticide_Likeness_Violations>
0

> <Post_Em_Herbicide_Likeness_Violations>
0

> <Metabolite_ID>
BTM00004

> <Reaction>
Hydroxylation of aromatic carbon ortho to halide group

> <Reaction_ID>
BTMR1040

> <Enzyme(s)>
CYP1A2
CYP2A6
CYP2B6
CYP2C8
CYP2C9
CYP2C19
CYP2D6
CYP2E1
CYP3A4

> <Biosystem>
HUMAN

> <Precursor_ID>
TEST0043_osilodrostat

> <Precursor_SMILES>
FC1=C([C@@H]2N3C(CC2)=CN=C3)C=CC(=C1)C#N

> <Precursor_InChI>
InChI=1S/C13H10FN3/c14-12-5-9(6-15)1-3-11(12)13-4-2-10-7-16-8-17(10)13/h1,3,5,7-8,13H,2,4H2/t13-/m1/s1

> <Precursor_InChIKey>
USUZGMWDZDXMDG-CYBMUJFWSA-N

> <Precursor_ALogP>
2.020599

> <Precursor_Major_Isotope_Mass>
227.0858

$$$$
BTM00005
  CDK     08072417422D

 18 20  0  0  1  0  0  0  0  0999 V2000
   -0.5755   -3.4420    0.0000 F   0  0  0  0  0  0  0  0  0  0  0  0
    0.8920   -3.7523    0.0000 C   0  0  0  0  0  0  0  0  0  0  0  0
    1.8953   -2.6360    0.0000 C   0  0  0  0  0  0  0  0  0  0  0  0
    1.4300   -1.2100    0.0000 C   0  0  2  0  0  0  0  0  0  0  0  0
    0.0000   -0.7500    0.0000 N   0  0  0  0  0  0  0  0  0  0  0  0
    0.0000    0.7500    0.0000 C   0  0  0  0  0  0  0  0  0  0  0  0
    1.4300    1.2100    0.0000 C   0  0  0  0  0  0  0  0  0  0  0  0
    2.3100    0.0000    0.0000 C   0  0  0  0  0  0  0  0  0  0  0  0
   -1.4300    1.2100    0.0000 C   0  0  0  0  0  0  0  0  0  0  0  0
   -2.3100    0.0000    0.0000 N   0  0  0  0  0  0  0  0  0  0  0  0
   -1.4300   -1.2100    0.0000 C   0  0  0  0  0  0  0  0  0  0  0  0
    3.3638   -2.9458    0.0000 C   0  0  0  0  0  0  0  0  0  0  0  0
    3.8291   -4.3718    0.0000 C   0  0  0  0  0  0  0  0  0  0  0  0
    2.8258   -5.4880    0.0000 C   0  0  0  0  0  0  0  0  0  0  0  0
    1.3573   -5.1783    0.0000 C   0  0  0  0  0  0  0  0  0  0  0  0
    3.2911   -6.9141    0.0000 C   0  0  0  0  0  0  0  0  0  0  0  0
    3.7564   -8.3401    0.0000 N   0  0  0  0  0  0  0  0  0  0  0  0
    4.3659   -1.8297    0.0000 O   0  0  0  0  0  0  0  0  0  0  0  0
  1  2  1  0  0  0  0
  2  3  2  0  0  0  0
  4  3  1  6  0  0  0
  4  5  1  0  0  0  0
  5  6  1  0  0  0  0
  6  7  1  0  0  0  0
  7  8  1  0  0  0  0
  4  8  1  0  0  0  0
  6  9  2  0  0  0  0
  9 10  1  0  0  0  0
 10 11  2  0  0  0  0
  5 11  1  0  0  0  0
  3 12  1  0  0  0  0
 12 13  2  0  0  0  0
 13 14  1  0  0  0  0
 14 15  2  0  0  0  0
  2 15  1  0  0  0  0
 14 16  1  0  0  0  0
 16 17  3  0  0  0  0
 18 12  1  0  0  0  0
M  END
> <InChI>
InChI=1S/C13H10FN3O/c14-10-3-8(5-15)4-12(18)13(10)11-2-1-9-6-16-7-17(9)11/h3-4,6-7,11,18H,1-2H2/t11-/m1/s1

> <InChIKey>
DXWPHXCXPJYPEW-LLVKDONJSA-N

> <SMILES>
FC1=C([C@@H]2N3C(CC2)=CN=C3)C(=CC(=C1)C#N)O

> <Synonyms>


> <PUBCHEM_CID>


> <Molecular_formula>
C13H10FN3O

> <Major_Isotope_Mass>
243.08079016000002

> <ALogP>
1.7531999999999999

> <Lipinski_Violations>
0

> <Insecticide_Likeness_Violations>
0

> <Post_Em_Herbicide_Likeness_Violations>
0

> <Metabolite_ID>
BTM00005

> <Reaction>
Hydroxylation of aromatic carbon meta to halide group

> <Reaction_ID>
BTMR1039

> <Enzyme(s)>
CYP2A6
CYP2B6
CYP2C9
CYP2C19
CYP2E1
CYP3A4

> <Biosystem>
HUMAN

> <Precursor_ID>
TEST0043_osilodrostat

> <Precursor_SMILES>
FC1=C([C@@H]2N3C(CC2)=CN=C3)C=CC(=C1)C#N

> <Precursor_InChI>
InChI=1S/C13H10FN3/c14-12-5-9(6-15)1-3-11(12)13-4-2-10-7-16-8-17(10)13/h1,3,5,7-8,13H,2,4H2/t13-/m1/s1

> <Precursor_InChIKey>
USUZGMWDZDXMDG-CYBMUJFWSA-N

> <Precursor_ALogP>
2.020599

> <Precursor_Major_Isotope_Mass>
227.0858

$$$$
