BTM00001
  CDK     08072417402D

 24 26  0  0  1  0  0  0  0  0999 V2000
   -5.5387    0.4236    0.0000 S   0  0  0  0  0  0  0  0  0  0  0  0
   -4.5628    1.5627    0.0000 O   0  0  0  0  0  0  0  0  0  0  0  0
   -3.0883    1.2871    0.0000 N   0  0  0  0  0  0  0  0  0  0  0  0
   -1.1931    2.8120    0.0000 C   0  0  1  0  0  0  0  0  0  0  0  0
   -1.1931    1.3120    0.0000 C   0  0  0  0  0  0  0  0  0  0  0  0
    0.1060    0.5620    0.0000 N   0  0  0  0  0  0  0  0  0  0  0  0
    1.4050    1.3120    0.0000 C   0  0  1  0  0  0  0  0  0  0  0  0
    1.4050    2.8120    0.0000 C   0  0  0  0  0  0  0  0  0  0  0  0
    0.1060    3.5620    0.0000 C   0  0  0  0  0  0  0  0  0  0  0  0
    2.7040    0.5620    0.0000 C   0  0  0  0  0  0  0  0  0  0  0  0
    2.7040   -0.9380    0.0000 O   0  0  0  0  0  0  0  0  0  0  0  0
    4.0031    1.3120    0.0000 N   0  0  0  0  0  0  0  0  0  0  0  0
    5.3021    0.5620    0.0000 C   0  0  0  0  0  0  0  0  0  0  0  0
    5.3016   -0.9388    0.0000 C   0  0  0  0  0  0  0  0  0  0  0  0
    6.6007   -1.6888    0.0000 C   0  0  0  0  0  0  0  0  0  0  0  0
    7.9002   -0.9380    0.0000 N   0  3  0  0  0  0  0  0  0  0  0  0
    7.9007    0.5628    0.0000 C   0  0  0  0  0  0  0  0  0  0  0  0
    6.6016    1.3128    0.0000 C   0  0  0  0  0  0  0  0  0  0  0  0
   -2.1623   -0.3169    0.0000 C   0  0  0  0  0  0  0  0  0  0  0  0
   -2.6608   -1.7316    0.0000 O   0  0  0  0  0  0  0  0  0  0  0  0
   -6.6778    1.3996    0.0000 O   0  5  0  0  0  0  0  0  0  0  0  0
   -6.5147   -0.7154    0.0000 O   0  0  0  0  0  0  0  0  0  0  0  0
   -4.3997   -0.5523    0.0000 O   0  0  0  0  0  0  0  0  0  0  0  0
   -2.4921    0.5620    0.0000 O   0  0  0  0  0  0  0  0  0  0  0  0
  1  2  1  0  0  0  0
  2  3  1  0  0  0  0
  4  3  1  6  0  0  0
  4  5  1  0  0  0  0
  5  6  1  0  0  0  0
  6  7  1  0  0  0  0
  7  8  1  0  0  0  0
  8  9  1  0  0  0  0
  4  9  1  0  0  0  0
  7 10  1  1  0  0  0
 10 11  2  0  0  0  0
 10 12  1  0  0  0  0
 12 13  1  0  0  0  0
 13 14  1  0  0  0  0
 14 15  1  0  0  0  0
 15 16  1  0  0  0  0
 16 17  1  0  0  0  0
 17 18  1  0  0  0  0
 13 18  1  0  0  0  0
  6 19  1  0  0  0  0
  3 19  1  0  0  0  0
 19 20  2  0  0  0  0
  1 21  1  0  0  0  0
  1 22  2  0  0  0  0
  1 23  2  0  0  0  0
 24  5  1  0  0  0  0
M  CHG  1  16   1
M  CHG  1  21  -1
M  END
> <InChI>
InChI=1S/C12H20N4O7S/c17-10(14-7-3-5-13-6-4-7)8-1-2-9-11(18)15(8)12(19)16(9)23-24(20,21)22/h7-9,11,13,18H,1-6H2,(H,14,17)(H,20,21,22)/t8-,9+,11?/m0/s1

> <InChIKey>
WLSXPBFNQGINAX-VUHGHZMFSA-N

> <SMILES>
S(ON1[C@H]2C(N([C@@H](CC2)C(=O)NC3CC[NH2+]CC3)C1=O)O)([O-])(=O)=O

> <Synonyms>


> <PUBCHEM_CID>


> <Molecular_formula>
C12H20N4O7S

> <Major_Isotope_Mass>
364.10526998

> <ALogP>
-4.079499999999998

> <Lipinski_Violations>
0

> <Insecticide_Likeness_Violations>
1

> <Post_Em_Herbicide_Likeness_Violations>
1

> <Metabolite_ID>
BTM00001

> <Reaction>
Hydroxylation of heteroalicyclic secondary carbon

> <Reaction_ID>
BTMR1070

> <Enzyme(s)>
CYP1A2
CYP2A6
CYP2C9
CYP2D6
CYP3A4

> <Biosystem>
HUMAN

> <Precursor_ID>
TEST0028_Relebactam

> <Precursor_SMILES>
S(ON1[C@H]2C[N@]([C@@H](CC2)C(=O)NC3CC[NH2+]CC3)C1=O)([O-])(=O)=O

> <Precursor_InChI>
InChI=1S/C12H20N4O6S/c17-11(14-8-3-5-13-6-4-8)10-2-1-9-7-15(10)12(18)16(9)22-23(19,20)21/h8-10,13H,1-7H2,(H,14,17)(H,19,20,21)/t9-,10+/m1/s1

> <Precursor_InChIKey>
SMOBCLHAZXOKDQ-ZJUUUORDSA-N

> <Precursor_ALogP>
-3.73979

> <Precursor_Major_Isotope_Mass>
348.1103

$$$$
BTM00002
  CDK     08072417402D

 24 26  0  0  1  0  0  0  0  0999 V2000
   -5.2140    0.9862    0.0000 S   0  0  0  0  0  0  0  0  0  0  0  0
   -4.2380    2.1253    0.0000 O   0  0  0  0  0  0  0  0  0  0  0  0
   -2.7635    1.8496    0.0000 N   0  0  0  0  0  0  0  0  0  0  0  0
   -0.8683    3.3745    0.0000 C   0  0  1  0  0  0  0  0  0  0  0  0
   -0.8683    1.8745    0.0000 C   0  0  0  0  0  0  0  0  0  0  0  0
    0.4307    1.1245    0.0000 N   0  0  0  0  0  0  0  0  0  0  0  0
    1.7298    1.8745    0.0000 C   0  0  1  0  0  0  0  0  0  0  0  0
    1.7298    3.3745    0.0000 C   0  0  0  0  0  0  0  0  0  0  0  0
    0.4307    4.1245    0.0000 C   0  0  0  0  0  0  0  0  0  0  0  0
    3.0288    1.1245    0.0000 C   0  0  0  0  0  0  0  0  0  0  0  0
    3.0288   -0.3755    0.0000 O   0  0  0  0  0  0  0  0  0  0  0  0
    4.3279    1.8745    0.0000 N   0  0  0  0  0  0  0  0  0  0  0  0
    5.6269    1.1245    0.0000 C   0  0  0  0  0  0  0  0  0  0  0  0
    5.6264   -0.3763    0.0000 C   0  0  0  0  0  0  0  0  0  0  0  0
    6.9255   -1.1263    0.0000 C   0  0  0  0  0  0  0  0  0  0  0  0
    8.2250   -0.3755    0.0000 N   0  3  0  0  0  0  0  0  0  0  0  0
    8.2255    1.1254    0.0000 C   0  0  0  0  0  0  0  0  0  0  0  0
    6.9264    1.8754    0.0000 C   0  0  0  0  0  0  0  0  0  0  0  0
   -1.8375    0.2457    0.0000 C   0  0  0  0  0  0  0  0  0  0  0  0
   -2.3360   -1.1691    0.0000 O   0  0  0  0  0  0  0  0  0  0  0  0
   -6.3530    1.9622    0.0000 O   0  5  0  0  0  0  0  0  0  0  0  0
   -6.1899   -0.1529    0.0000 O   0  0  0  0  0  0  0  0  0  0  0  0
   -4.0749    0.0102    0.0000 O   0  0  0  0  0  0  0  0  0  0  0  0
    6.9257   -2.6263    0.0000 O   0  0  0  0  0  0  0  0  0  0  0  0
  1  2  1  0  0  0  0
  2  3  1  0  0  0  0
  4  3  1  6  0  0  0
  4  5  1  0  0  0  0
  5  6  1  0  0  0  0
  6  7  1  0  0  0  0
  7  8  1  0  0  0  0
  8  9  1  0  0  0  0
  4  9  1  0  0  0  0
  7 10  1  1  0  0  0
 10 11  2  0  0  0  0
 10 12  1  0  0  0  0
 12 13  1  0  0  0  0
 13 14  1  0  0  0  0
 14 15  1  0  0  0  0
 15 16  1  0  0  0  0
 16 17  1  0  0  0  0
 17 18  1  0  0  0  0
 13 18  1  0  0  0  0
  6 19  1  0  0  0  0
  3 19  1  0  0  0  0
 19 20  2  0  0  0  0
  1 21  1  0  0  0  0
  1 22  2  0  0  0  0
  1 23  2  0  0  0  0
 24 15  1  0  0  0  0
M  CHG  1  16   1
M  CHG  1  21  -1
M  END
> <InChI>
InChI=1S/C12H20N4O7S/c17-10-5-7(3-4-13-10)14-11(18)9-2-1-8-6-15(9)12(19)16(8)23-24(20,21)22/h7-10,13,17H,1-6H2,(H,14,18)(H,20,21,22)/t7?,8-,9+,10?/m1/s1

> <InChIKey>
XHDYZVLPGYCQPA-MXAZLMSGSA-N

> <SMILES>
S(ON1[C@H]2CN([C@@H](CC2)C(=O)NC3CC([NH2+]CC3)O)C1=O)([O-])(=O)=O

> <Synonyms>


> <PUBCHEM_CID>


> <Molecular_formula>
C12H20N4O7S

> <Major_Isotope_Mass>
364.10526998

> <ALogP>
-3.886299999999998

> <Lipinski_Violations>
0

> <Insecticide_Likeness_Violations>
1

> <Post_Em_Herbicide_Likeness_Violations>
1

> <Metabolite_ID>
BTM00002

> <Reaction>
Hydroxylation of heteroalicyclic secondary carbon

> <Reaction_ID>
BTMR1070

> <Enzyme(s)>
CYP1A2
CYP2A6
CYP2C9
CYP2D6
CYP3A4

> <Biosystem>
HUMAN

> <Precursor_ID>
TEST0028_Relebactam

> <Precursor_SMILES>
S(ON1[C@H]2C[N@]([C@@H](CC2)C(=O)NC3CC[NH2+]CC3)C1=O)([O-])(=O)=O

> <Precursor_InChI>
InChI=1S/C12H20N4O6S/c17-11(14-8-3-5-13-6-4-8)10-2-1-9-7-15(10)12(18)16(9)22-23(19,20)21/h8-10,13H,1-7H2,(H,14,17)(H,19,20,21)/t9-,10+/m1/s1

> <Precursor_InChIKey>
SMOBCLHAZXOKDQ-ZJUUUORDSA-N

> <Precursor_ALogP>
-3.73979

> <Precursor_Major_Isotope_Mass>
348.1103

$$$$
BTM00001
  CDK     08072417402D

 24 26  0  0  1  0  0  0  0  0999 V2000
   -5.5387    0.4236    0.0000 S   0  0  0  0  0  0  0  0  0  0  0  0
   -4.5628    1.5627    0.0000 O   0  0  0  0  0  0  0  0  0  0  0  0
   -3.0883    1.2871    0.0000 N   0  0  0  0  0  0  0  0  0  0  0  0
   -1.1931    2.8120    0.0000 C   0  0  1  0  0  0  0  0  0  0  0  0
   -1.1931    1.3120    0.0000 C   0  0  0  0  0  0  0  0  0  0  0  0
    0.1060    0.5620    0.0000 N   0  0  0  0  0  0  0  0  0  0  0  0
    1.4050    1.3120    0.0000 C   0  0  1  0  0  0  0  0  0  0  0  0
    1.4050    2.8120    0.0000 C   0  0  0  0  0  0  0  0  0  0  0  0
    0.1060    3.5620    0.0000 C   0  0  0  0  0  0  0  0  0  0  0  0
    2.7040    0.5620    0.0000 C   0  0  0  0  0  0  0  0  0  0  0  0
    2.7040   -0.9380    0.0000 O   0  0  0  0  0  0  0  0  0  0  0  0
    4.0031    1.3120    0.0000 N   0  0  0  0  0  0  0  0  0  0  0  0
    5.3021    0.5620    0.0000 C   0  0  0  0  0  0  0  0  0  0  0  0
    5.3016   -0.9388    0.0000 C   0  0  0  0  0  0  0  0  0  0  0  0
    6.6007   -1.6888    0.0000 C   0  0  0  0  0  0  0  0  0  0  0  0
    7.9002   -0.9380    0.0000 N   0  3  0  0  0  0  0  0  0  0  0  0
    7.9007    0.5628    0.0000 C   0  0  0  0  0  0  0  0  0  0  0  0
    6.6016    1.3128    0.0000 C   0  0  0  0  0  0  0  0  0  0  0  0
   -2.1623   -0.3169    0.0000 C   0  0  0  0  0  0  0  0  0  0  0  0
   -2.6608   -1.7316    0.0000 O   0  0  0  0  0  0  0  0  0  0  0  0
   -6.6778    1.3996    0.0000 O   0  5  0  0  0  0  0  0  0  0  0  0
   -6.5147   -0.7154    0.0000 O   0  0  0  0  0  0  0  0  0  0  0  0
   -4.3997   -0.5523    0.0000 O   0  0  0  0  0  0  0  0  0  0  0  0
   -2.4921    0.5620    0.0000 O   0  0  0  0  0  0  0  0  0  0  0  0
  1  2  1  0  0  0  0
  2  3  1  0  0  0  0
  4  3  1  6  0  0  0
  4  5  1  0  0  0  0
  5  6  1  0  0  0  0
  6  7  1  0  0  0  0
  7  8  1  0  0  0  0
  8  9  1  0  0  0  0
  4  9  1  0  0  0  0
  7 10  1  1  0  0  0
 10 11  2  0  0  0  0
 10 12  1  0  0  0  0
 12 13  1  0  0  0  0
 13 14  1  0  0  0  0
 14 15  1  0  0  0  0
 15 16  1  0  0  0  0
 16 17  1  0  0  0  0
 17 18  1  0  0  0  0
 13 18  1  0  0  0  0
  6 19  1  0  0  0  0
  3 19  1  0  0  0  0
 19 20  2  0  0  0  0
  1 21  1  0  0  0  0
  1 22  2  0  0  0  0
  1 23  2  0  0  0  0
 24  5  1  0  0  0  0
M  CHG  1  16   1
M  CHG  1  21  -1
M  END
> <InChI>
InChI=1S/C12H20N4O7S/c17-10(14-7-3-5-13-6-4-7)8-1-2-9-11(18)15(8)12(19)16(9)23-24(20,21)22/h7-9,11,13,18H,1-6H2,(H,14,17)(H,20,21,22)/t8-,9+,11?/m0/s1

> <InChIKey>
WLSXPBFNQGINAX-VUHGHZMFSA-N

> <SMILES>
S(ON1[C@H]2C(N([C@@H](CC2)C(=O)NC3CC[NH2+]CC3)C1=O)O)([O-])(=O)=O

> <Synonyms>


> <PUBCHEM_CID>


> <Molecular_formula>
C12H20N4O7S

> <Major_Isotope_Mass>
364.10526998

> <ALogP>
-4.079499999999998

> <Lipinski_Violations>
0

> <Insecticide_Likeness_Violations>
1

> <Post_Em_Herbicide_Likeness_Violations>
1

> <Metabolite_ID>
BTM00001

> <Reaction>
Hydroxylation of heteroalicyclic secondary carbon

> <Reaction_ID>
BTMR1071

> <Enzyme(s)>
CYP1A2

> <Biosystem>
HUMAN

> <Precursor_ID>
TEST0028_Relebactam

> <Precursor_SMILES>
S(ON1[C@H]2C[N@]([C@@H](CC2)C(=O)NC3CC[NH2+]CC3)C1=O)([O-])(=O)=O

> <Precursor_InChI>
InChI=1S/C12H20N4O6S/c17-11(14-8-3-5-13-6-4-8)10-2-1-9-7-15(10)12(18)16(9)22-23(19,20)21/h8-10,13H,1-7H2,(H,14,17)(H,19,20,21)/t9-,10+/m1/s1

> <Precursor_InChIKey>
SMOBCLHAZXOKDQ-ZJUUUORDSA-N

> <Precursor_ALogP>
-3.73979

> <Precursor_Major_Isotope_Mass>
348.1103

$$$$
BTM00003
  CDK     08072417402D

 24 26  0  0  1  0  0  0  0  0999 V2000
   -5.5387    0.4236    0.0000 S   0  0  0  0  0  0  0  0  0  0  0  0
   -4.5628    1.5627    0.0000 O   0  0  0  0  0  0  0  0  0  0  0  0
   -3.0883    1.2871    0.0000 N   0  0  0  0  0  0  0  0  0  0  0  0
   -1.1931    2.8120    0.0000 C   0  0  1  0  0  0  0  0  0  0  0  0
   -1.1931    1.3120    0.0000 C   0  0  0  0  0  0  0  0  0  0  0  0
    0.1060    0.5620    0.0000 N   0  0  0  0  0  0  0  0  0  0  0  0
    1.4050    1.3120    0.0000 C   0  0  1  0  0  0  0  0  0  0  0  0
    1.4050    2.8120    0.0000 C   0  0  0  0  0  0  0  0  0  0  0  0
    0.1060    3.5620    0.0000 C   0  0  0  0  0  0  0  0  0  0  0  0
    2.7040    0.5620    0.0000 C   0  0  0  0  0  0  0  0  0  0  0  0
    2.7040   -0.9380    0.0000 O   0  0  0  0  0  0  0  0  0  0  0  0
    4.0031    1.3120    0.0000 N   0  0  0  0  0  0  0  0  0  0  0  0
    5.3021    0.5620    0.0000 C   0  0  0  0  0  0  0  0  0  0  0  0
    5.3016   -0.9388    0.0000 C   0  0  0  0  0  0  0  0  0  0  0  0
    6.6007   -1.6888    0.0000 C   0  0  0  0  0  0  0  0  0  0  0  0
    7.9002   -0.9380    0.0000 N   0  3  0  0  0  0  0  0  0  0  0  0
    7.9007    0.5628    0.0000 C   0  0  0  0  0  0  0  0  0  0  0  0
    6.6016    1.3128    0.0000 C   0  0  0  0  0  0  0  0  0  0  0  0
   -2.1623   -0.3169    0.0000 C   0  0  0  0  0  0  0  0  0  0  0  0
   -2.6608   -1.7316    0.0000 O   0  0  0  0  0  0  0  0  0  0  0  0
   -6.6778    1.3996    0.0000 O   0  5  0  0  0  0  0  0  0  0  0  0
   -6.5147   -0.7154    0.0000 O   0  0  0  0  0  0  0  0  0  0  0  0
   -4.3997   -0.5523    0.0000 O   0  0  0  0  0  0  0  0  0  0  0  0
    4.0025   -1.6886    0.0000 O   0  0  0  0  0  0  0  0  0  0  0  0
  1  2  1  0  0  0  0
  2  3  1  0  0  0  0
  4  3  1  6  0  0  0
  4  5  1  0  0  0  0
  5  6  1  0  0  0  0
  6  7  1  0  0  0  0
  7  8  1  0  0  0  0
  8  9  1  0  0  0  0
  4  9  1  0  0  0  0
  7 10  1  1  0  0  0
 10 11  2  0  0  0  0
 10 12  1  0  0  0  0
 12 13  1  0  0  0  0
 13 14  1  0  0  0  0
 14 15  1  0  0  0  0
 15 16  1  0  0  0  0
 16 17  1  0  0  0  0
 17 18  1  0  0  0  0
 13 18  1  0  0  0  0
  6 19  1  0  0  0  0
  3 19  1  0  0  0  0
 19 20  2  0  0  0  0
  1 21  1  0  0  0  0
  1 22  2  0  0  0  0
  1 23  2  0  0  0  0
 24 14  1  0  0  0  0
M  CHG  1  16   1
M  CHG  1  21  -1
M  END
> <InChI>
InChI=1S/C12H20N4O7S/c17-10-5-13-4-3-8(10)14-11(18)9-2-1-7-6-15(9)12(19)16(7)23-24(20,21)22/h7-10,13,17H,1-6H2,(H,14,18)(H,20,21,22)/t7-,8?,9+,10?/m1/s1

> <InChIKey>
JNPXNPZSYYWLBU-RJQCTPFPSA-N

> <SMILES>
S(ON1[C@H]2CN([C@@H](CC2)C(=O)NC3C(C[NH2+]CC3)O)C1=O)([O-])(=O)=O

> <Synonyms>


> <PUBCHEM_CID>


> <Molecular_formula>
C12H20N4O7S

> <Major_Isotope_Mass>
364.10526998

> <ALogP>
-4.312899999999998

> <Lipinski_Violations>
0

> <Insecticide_Likeness_Violations>
1

> <Post_Em_Herbicide_Likeness_Violations>
1

> <Metabolite_ID>
BTM00003

> <Reaction>
Hydroxylation of heteroalicyclic secondary carbon

> <Reaction_ID>
BTMR1071

> <Enzyme(s)>
CYP1A2

> <Biosystem>
HUMAN

> <Precursor_ID>
TEST0028_Relebactam

> <Precursor_SMILES>
S(ON1[C@H]2C[N@]([C@@H](CC2)C(=O)NC3CC[NH2+]CC3)C1=O)([O-])(=O)=O

> <Precursor_InChI>
InChI=1S/C12H20N4O6S/c17-11(14-8-3-5-13-6-4-8)10-2-1-9-7-15(10)12(18)16(9)22-23(19,20)21/h8-10,13H,1-7H2,(H,14,17)(H,19,20,21)/t9-,10+/m1/s1

> <Precursor_InChIKey>
SMOBCLHAZXOKDQ-ZJUUUORDSA-N

> <Precursor_ALogP>
-3.73979

> <Precursor_Major_Isotope_Mass>
348.1103

$$$$
BTM00004
  CDK     08072417402D

 24 26  0  0  1  0  0  0  0  0999 V2000
   -5.5387    0.4236    0.0000 S   0  0  0  0  0  0  0  0  0  0  0  0
   -4.5628    1.5627    0.0000 O   0  0  0  0  0  0  0  0  0  0  0  0
   -3.0883    1.2871    0.0000 N   0  0  0  0  0  0  0  0  0  0  0  0
   -1.1931    2.8120    0.0000 C   0  0  1  0  0  0  0  0  0  0  0  0
   -1.1931    1.3120    0.0000 C   0  0  0  0  0  0  0  0  0  0  0  0
    0.1060    0.5620    0.0000 N   0  0  0  0  0  0  0  0  0  0  0  0
    1.4050    1.3120    0.0000 C   0  0  1  0  0  0  0  0  0  0  0  0
    1.4050    2.8120    0.0000 C   0  0  0  0  0  0  0  0  0  0  0  0
    0.1060    3.5620    0.0000 C   0  0  0  0  0  0  0  0  0  0  0  0
    2.7040    0.5620    0.0000 C   0  0  0  0  0  0  0  0  0  0  0  0
    2.7040   -0.9380    0.0000 O   0  0  0  0  0  0  0  0  0  0  0  0
    4.0031    1.3120    0.0000 N   0  0  0  0  0  0  0  0  0  0  0  0
    5.3021    0.5620    0.0000 C   0  0  0  0  0  0  0  0  0  0  0  0
    5.3016   -0.9388    0.0000 C   0  0  0  0  0  0  0  0  0  0  0  0
    6.6007   -1.6888    0.0000 C   0  0  0  0  0  0  0  0  0  0  0  0
    7.9002   -0.9380    0.0000 N   0  3  0  0  0  0  0  0  0  0  0  0
    7.9007    0.5628    0.0000 C   0  0  0  0  0  0  0  0  0  0  0  0
    6.6016    1.3128    0.0000 C   0  0  0  0  0  0  0  0  0  0  0  0
   -2.1623   -0.3169    0.0000 C   0  0  0  0  0  0  0  0  0  0  0  0
   -2.6608   -1.7316    0.0000 O   0  0  0  0  0  0  0  0  0  0  0  0
   -6.6778    1.3996    0.0000 O   0  5  0  0  0  0  0  0  0  0  0  0
   -6.5147   -0.7154    0.0000 O   0  0  0  0  0  0  0  0  0  0  0  0
   -4.3997   -0.5523    0.0000 O   0  0  0  0  0  0  0  0  0  0  0  0
    2.7040    3.5620    0.0000 O   0  0  0  0  0  0  0  0  0  0  0  0
  1  2  1  0  0  0  0
  2  3  1  0  0  0  0
  4  3  1  6  0  0  0
  4  5  1  0  0  0  0
  5  6  1  0  0  0  0
  6  7  1  0  0  0  0
  7  8  1  0  0  0  0
  8  9  1  0  0  0  0
  4  9  1  0  0  0  0
  7 10  1  1  0  0  0
 10 11  2  0  0  0  0
 10 12  1  0  0  0  0
 12 13  1  0  0  0  0
 13 14  1  0  0  0  0
 14 15  1  0  0  0  0
 15 16  1  0  0  0  0
 16 17  1  0  0  0  0
 17 18  1  0  0  0  0
 13 18  1  0  0  0  0
  6 19  1  0  0  0  0
  3 19  1  0  0  0  0
 19 20  2  0  0  0  0
  1 21  1  0  0  0  0
  1 22  2  0  0  0  0
  1 23  2  0  0  0  0
 24  8  1  0  0  0  0
M  CHG  1  16   1
M  CHG  1  21  -1
M  END
> <InChI>
InChI=1S/C12H20N4O7S/c17-9-5-8-6-15(12(19)16(8)23-24(20,21)22)10(9)11(18)14-7-1-3-13-4-2-7/h7-10,13,17H,1-6H2,(H,14,18)(H,20,21,22)/t8-,9?,10+/m1/s1

> <InChIKey>
FXUHVLGUPNEIIZ-FIBVVXLUSA-N

> <SMILES>
S(ON1[C@H]2CN([C@@H](C(C2)O)C(=O)NC3CC[NH2+]CC3)C1=O)([O-])(=O)=O

> <Synonyms>


> <PUBCHEM_CID>


> <Molecular_formula>
C12H20N4O7S

> <Major_Isotope_Mass>
364.10526998

> <ALogP>
-4.830499999999998

> <Lipinski_Violations>
0

> <Insecticide_Likeness_Violations>
1

> <Post_Em_Herbicide_Likeness_Violations>
1

> <Metabolite_ID>
BTM00004

> <Reaction>
Hydroxylation of heteroalicyclic secondary carbon

> <Reaction_ID>
BTMR1071

> <Enzyme(s)>
CYP1A2

> <Biosystem>
HUMAN

> <Precursor_ID>
TEST0028_Relebactam

> <Precursor_SMILES>
S(ON1[C@H]2C[N@]([C@@H](CC2)C(=O)NC3CC[NH2+]CC3)C1=O)([O-])(=O)=O

> <Precursor_InChI>
InChI=1S/C12H20N4O6S/c17-11(14-8-3-5-13-6-4-8)10-2-1-9-7-15(10)12(18)16(9)22-23(19,20)21/h8-10,13H,1-7H2,(H,14,17)(H,19,20,21)/t9-,10+/m1/s1

> <Precursor_InChIKey>
SMOBCLHAZXOKDQ-ZJUUUORDSA-N

> <Precursor_ALogP>
-3.73979

> <Precursor_Major_Isotope_Mass>
348.1103

$$$$
BTM00005
  CDK     08072417402D

 24 26  0  0  1  0  0  0  0  0999 V2000
   -5.5387    0.4236    0.0000 S   0  0  0  0  0  0  0  0  0  0  0  0
   -4.5628    1.5627    0.0000 O   0  0  0  0  0  0  0  0  0  0  0  0
   -3.0883    1.2871    0.0000 N   0  0  0  0  0  0  0  0  0  0  0  0
   -1.1931    2.8120    0.0000 C   0  0  1  0  0  0  0  0  0  0  0  0
   -1.1931    1.3120    0.0000 C   0  0  0  0  0  0  0  0  0  0  0  0
    0.1060    0.5620    0.0000 N   0  0  0  0  0  0  0  0  0  0  0  0
    1.4050    1.3120    0.0000 C   0  0  1  0  0  0  0  0  0  0  0  0
    1.4050    2.8120    0.0000 C   0  0  0  0  0  0  0  0  0  0  0  0
    0.1060    3.5620    0.0000 C   0  0  0  0  0  0  0  0  0  0  0  0
    2.7040    0.5620    0.0000 C   0  0  0  0  0  0  0  0  0  0  0  0
    2.7040   -0.9380    0.0000 O   0  0  0  0  0  0  0  0  0  0  0  0
    4.0031    1.3120    0.0000 N   0  0  0  0  0  0  0  0  0  0  0  0
    5.3021    0.5620    0.0000 C   0  0  0  0  0  0  0  0  0  0  0  0
    5.3016   -0.9388    0.0000 C   0  0  0  0  0  0  0  0  0  0  0  0
    6.6007   -1.6888    0.0000 C   0  0  0  0  0  0  0  0  0  0  0  0
    7.9002   -0.9380    0.0000 N   0  3  0  0  0  0  0  0  0  0  0  0
    7.9007    0.5628    0.0000 C   0  0  0  0  0  0  0  0  0  0  0  0
    6.6016    1.3128    0.0000 C   0  0  0  0  0  0  0  0  0  0  0  0
   -2.1623   -0.3169    0.0000 C   0  0  0  0  0  0  0  0  0  0  0  0
   -2.6608   -1.7316    0.0000 O   0  0  0  0  0  0  0  0  0  0  0  0
   -6.6778    1.3996    0.0000 O   0  5  0  0  0  0  0  0  0  0  0  0
   -6.5147   -0.7154    0.0000 O   0  0  0  0  0  0  0  0  0  0  0  0
   -4.3997   -0.5523    0.0000 O   0  0  0  0  0  0  0  0  0  0  0  0
    0.1060    5.0620    0.0000 O   0  0  0  0  0  0  0  0  0  0  0  0
  1  2  1  0  0  0  0
  2  3  1  0  0  0  0
  4  3  1  6  0  0  0
  4  5  1  0  0  0  0
  5  6  1  0  0  0  0
  6  7  1  0  0  0  0
  7  8  1  0  0  0  0
  8  9  1  0  0  0  0
  4  9  1  0  0  0  0
  7 10  1  1  0  0  0
 10 11  2  0  0  0  0
 10 12  1  0  0  0  0
 12 13  1  0  0  0  0
 13 14  1  0  0  0  0
 14 15  1  0  0  0  0
 15 16  1  0  0  0  0
 16 17  1  0  0  0  0
 17 18  1  0  0  0  0
 13 18  1  0  0  0  0
  6 19  1  0  0  0  0
  3 19  1  0  0  0  0
 19 20  2  0  0  0  0
  1 21  1  0  0  0  0
  1 22  2  0  0  0  0
  1 23  2  0  0  0  0
 24  9  1  0  0  0  0
M  CHG  1  16   1
M  CHG  1  21  -1
M  END
> <InChI>
InChI=1S/C12H20N4O7S/c17-10-5-8(11(18)14-7-1-3-13-4-2-7)15-6-9(10)16(12(15)19)23-24(20,21)22/h7-10,13,17H,1-6H2,(H,14,18)(H,20,21,22)/t8-,9-,10?/m0/s1

> <InChIKey>
VCWBVHLFUPAMGS-XMCUXHSSSA-N

> <SMILES>
S(ON1[C@H]2CN([C@@H](CC2O)C(=O)NC3CC[NH2+]CC3)C1=O)([O-])(=O)=O

> <Synonyms>


> <PUBCHEM_CID>


> <Molecular_formula>
C12H20N4O7S

> <Major_Isotope_Mass>
364.10526998

> <ALogP>
-4.830499999999998

> <Lipinski_Violations>
0

> <Insecticide_Likeness_Violations>
1

> <Post_Em_Herbicide_Likeness_Violations>
1

> <Metabolite_ID>
BTM00005

> <Reaction>
Hydroxylation of heteroalicyclic secondary carbon

> <Reaction_ID>
BTMR1071

> <Enzyme(s)>
CYP1A2

> <Biosystem>
HUMAN

> <Precursor_ID>
TEST0028_Relebactam

> <Precursor_SMILES>
S(ON1[C@H]2C[N@]([C@@H](CC2)C(=O)NC3CC[NH2+]CC3)C1=O)([O-])(=O)=O

> <Precursor_InChI>
InChI=1S/C12H20N4O6S/c17-11(14-8-3-5-13-6-4-8)10-2-1-9-7-15(10)12(18)16(9)22-23(19,20)21/h8-10,13H,1-7H2,(H,14,17)(H,19,20,21)/t9-,10+/m1/s1

> <Precursor_InChIKey>
SMOBCLHAZXOKDQ-ZJUUUORDSA-N

> <Precursor_ALogP>
-3.73979

> <Precursor_Major_Isotope_Mass>
348.1103

$$$$
BTM00006
  CDK     08072417402D

 24 26  0  0  1  0  0  0  0  0999 V2000
   -5.5387    0.4236    0.0000 S   0  0  0  0  0  0  0  0  0  0  0  0
   -4.5628    1.5627    0.0000 O   0  0  0  0  0  0  0  0  0  0  0  0
   -3.0883    1.2871    0.0000 N   0  0  0  0  0  0  0  0  0  0  0  0
   -1.1931    2.8120    0.0000 C   0  0  1  0  0  0  0  0  0  0  0  0
   -1.1931    1.3120    0.0000 C   0  0  0  0  0  0  0  0  0  0  0  0
    0.1060    0.5620    0.0000 N   0  3  0  0  0  0  0  0  0  0  0  0
    1.4050    1.3120    0.0000 C   0  0  1  0  0  0  0  0  0  0  0  0
    1.4050    2.8120    0.0000 C   0  0  0  0  0  0  0  0  0  0  0  0
    0.1060    3.5620    0.0000 C   0  0  0  0  0  0  0  0  0  0  0  0
    2.7040    0.5620    0.0000 C   0  0  0  0  0  0  0  0  0  0  0  0
    2.7040   -0.9380    0.0000 O   0  0  0  0  0  0  0  0  0  0  0  0
    4.0031    1.3120    0.0000 N   0  0  0  0  0  0  0  0  0  0  0  0
    5.3021    0.5620    0.0000 C   0  0  0  0  0  0  0  0  0  0  0  0
    5.3016   -0.9388    0.0000 C   0  0  0  0  0  0  0  0  0  0  0  0
    6.6007   -1.6888    0.0000 C   0  0  0  0  0  0  0  0  0  0  0  0
    7.9002   -0.9380    0.0000 N   0  3  0  0  0  0  0  0  0  0  0  0
    7.9007    0.5628    0.0000 C   0  0  0  0  0  0  0  0  0  0  0  0
    6.6016    1.3128    0.0000 C   0  0  0  0  0  0  0  0  0  0  0  0
   -2.1623   -0.3169    0.0000 C   0  0  0  0  0  0  0  0  0  0  0  0
   -2.6608   -1.7316    0.0000 O   0  0  0  0  0  0  0  0  0  0  0  0
   -6.6778    1.3996    0.0000 O   0  5  0  0  0  0  0  0  0  0  0  0
   -6.5147   -0.7154    0.0000 O   0  0  0  0  0  0  0  0  0  0  0  0
   -4.3997   -0.5523    0.0000 O   0  0  0  0  0  0  0  0  0  0  0  0
    0.1060   -0.9380    0.0000 O   0  5  0  0  0  0  0  0  0  0  0  0
  1  2  1  0  0  0  0
  2  3  1  0  0  0  0
  4  3  1  6  0  0  0
  4  5  1  0  0  0  0
  5  6  1  0  0  0  0
  6  7  1  0  0  0  0
  7  8  1  0  0  0  0
  8  9  1  0  0  0  0
  4  9  1  0  0  0  0
  7 10  1  1  0  0  0
 10 11  2  0  0  0  0
 10 12  1  0  0  0  0
 12 13  1  0  0  0  0
 13 14  1  0  0  0  0
 14 15  1  0  0  0  0
 15 16  1  0  0  0  0
 16 17  1  0  0  0  0
 17 18  1  0  0  0  0
 13 18  1  0  0  0  0
  6 19  1  0  0  0  0
  3 19  1  0  0  0  0
 19 20  2  0  0  0  0
  1 21  1  0  0  0  0
  1 22  2  0  0  0  0
  1 23  2  0  0  0  0
  6 24  1  0  0  0  0
M  CHG  1   6   1
M  CHG  1  16   1
M  CHG  1  21  -1
M  CHG  1  24  -1
M  END
> <InChI>
InChI=1S/C12H20N4O7S/c17-11(14-8-3-5-13-6-4-8)10-2-1-9-7-16(10,19)12(18)15(9)23-24(20,21)22/h8-10,13H,1-7H2,(H,14,17)(H,20,21,22)/t9-,10+,16?/m1/s1

> <InChIKey>
IBERRMZUMPKAGE-KXTRXUQASA-N

> <SMILES>
S(ON1[C@H]2C[N+]([C@@H](CC2)C(=O)NC3CC[NH2+]CC3)(C1=O)[O-])([O-])(=O)=O

> <Synonyms>


> <PUBCHEM_CID>


> <Molecular_formula>
C12H20N4O7S

> <Major_Isotope_Mass>
364.10526998

> <ALogP>
-3.6203999999999996

> <Lipinski_Violations>
0

> <Insecticide_Likeness_Violations>
0

> <Post_Em_Herbicide_Likeness_Violations>
0

> <Metabolite_ID>
BTM00006

> <Reaction>
Oxidation of nitrogen in strained ring system

> <Reaction_ID>
BTMR1116

> <Enzyme(s)>
CYP2C9
CYP2E1
CYP3A4

> <Biosystem>
HUMAN

> <Precursor_ID>
TEST0028_Relebactam

> <Precursor_SMILES>
S(ON1[C@H]2C[N@]([C@@H](CC2)C(=O)NC3CC[NH2+]CC3)C1=O)([O-])(=O)=O

> <Precursor_InChI>
InChI=1S/C12H20N4O6S/c17-11(14-8-3-5-13-6-4-8)10-2-1-9-7-15(10)12(18)16(9)22-23(19,20)21/h8-10,13H,1-7H2,(H,14,17)(H,19,20,21)/t9-,10+/m1/s1

> <Precursor_InChIKey>
SMOBCLHAZXOKDQ-ZJUUUORDSA-N

> <Precursor_ALogP>
-3.73979

> <Precursor_Major_Isotope_Mass>
348.1103

$$$$
