BTM00001
  CDK     08072417452D

 30 32  0  0  0  0  0  0  0  0999 V2000
   -3.6089   -1.5002    0.0000 Br  0  0  0  0  0  0  0  0  0  0  0  0
   -2.3100   -0.7500    0.0000 C   0  0  0  0  0  0  0  0  0  0  0  0
   -1.0100   -1.5000    0.0000 C   0  0  0  0  0  0  0  0  0  0  0  0
    0.2900   -0.7500    0.0000 C   0  0  0  0  0  0  0  0  0  0  0  0
    1.7200   -1.2100    0.0000 N   0  0  0  0  0  0  0  0  0  0  0  0
    2.6000   -0.0000    0.0000 C   0  0  0  0  0  0  0  0  0  0  0  0
    1.7200    1.2100    0.0000 C   0  0  0  0  0  0  0  0  0  0  0  0
    0.2900    0.7500    0.0000 C   0  0  0  0  0  0  0  0  0  0  0  0
   -1.0100    1.5000    0.0000 C   0  0  0  0  0  0  0  0  0  0  0  0
   -1.0100    3.0000    0.0000 C   0  0  0  0  0  0  0  0  0  0  0  0
   -2.3090    3.7500    0.0000 N   0  0  0  0  0  0  0  0  0  0  0  0
   -2.3090    5.2500    0.0000 C   0  0  0  0  0  0  0  0  0  0  0  0
   -3.6081    3.0000    0.0000 C   0  0  0  0  0  0  0  0  0  0  0  0
   -2.3100    0.7500    0.0000 C   0  0  0  0  0  0  0  0  0  0  0  0
   -3.6089    1.5002    0.0000 O   0  0  0  0  0  0  0  0  0  0  0  0
    2.1853    2.6360    0.0000 C   0  0  0  0  0  0  0  0  0  0  0  0
    3.6529    2.9461    0.0000 O   0  0  0  0  0  0  0  0  0  0  0  0
    4.1182    4.3721    0.0000 C   0  0  0  0  0  0  0  0  0  0  0  0
    5.5858    4.6822    0.0000 C   0  0  0  0  0  0  0  0  0  0  0  0
    1.1830    3.7520    0.0000 O   0  0  0  0  0  0  0  0  0  0  0  0
    4.1000   -0.0000    0.0000 C   0  0  0  0  0  0  0  0  0  0  0  0
    4.8500   -1.2990    0.0000 S   0  0  0  0  0  0  0  0  0  0  0  0
    6.3500   -1.2990    0.0000 C   0  0  0  0  0  0  0  0  0  0  0  0
    7.1002   -0.0001    0.0000 C   0  0  0  0  0  0  0  0  0  0  0  0
    8.6010   -0.0008    0.0000 C   0  0  0  0  0  0  0  0  0  0  0  0
    9.3517   -1.3005    0.0000 C   0  0  0  0  0  0  0  0  0  0  0  0
    8.6015   -2.5994    0.0000 C   0  0  0  0  0  0  0  0  0  0  0  0
    7.1006   -2.5987    0.0000 C   0  0  0  0  0  0  0  0  0  0  0  0
    2.1853   -2.6360    0.0000 C   0  0  0  0  0  0  0  0  0  0  0  0
    4.8500    1.2990    0.0000 O   0  0  0  0  0  0  0  0  0  0  0  0
  1  2  1  0  0  0  0
  2  3  2  0  0  0  0
  3  4  1  0  0  0  0
  4  5  1  0  0  0  0
  5  6  1  0  0  0  0
  6  7  2  0  0  0  0
  7  8  1  0  0  0  0
  4  8  2  0  0  0  0
  8  9  1  0  0  0  0
  9 10  1  0  0  0  0
 10 11  1  0  0  0  0
 11 12  1  0  0  0  0
 11 13  1  0  0  0  0
  9 14  2  0  0  0  0
  2 14  1  0  0  0  0
 14 15  1  0  0  0  0
  7 16  1  0  0  0  0
 16 17  1  0  0  0  0
 17 18  1  0  0  0  0
 18 19  1  0  0  0  0
 16 20  2  0  0  0  0
  6 21  1  0  0  0  0
 21 22  1  0  0  0  0
 22 23  1  0  0  0  0
 23 24  2  0  0  0  0
 24 25  1  0  0  0  0
 25 26  2  0  0  0  0
 26 27  1  0  0  0  0
 27 28  2  0  0  0  0
 23 28  1  0  0  0  0
  5 29  1  0  0  0  0
 30 21  1  0  0  0  0
M  END
> <InChI>
InChI=1S/C22H25BrN2O4S/c1-5-29-21(27)18-17-14(12-24(2)3)20(26)15(23)11-16(17)25(4)19(18)22(28)30-13-9-7-6-8-10-13/h6-11,22,26,28H,5,12H2,1-4H3

> <InChIKey>
KMTRMIXNLJTMPQ-UHFFFAOYSA-N

> <SMILES>
BrC1=CC=2N(C(=C(C2C(CN(C)C)=C1O)C(OCC)=O)C(SC3=CC=CC=C3)O)C

> <Synonyms>


> <PUBCHEM_CID>


> <Molecular_formula>
C22H25BrN2O4S

> <Major_Isotope_Mass>
492.07184038

> <ALogP>
5.165200000000001

> <Lipinski_Violations>
0

> <Insecticide_Likeness_Violations>
0

> <Post_Em_Herbicide_Likeness_Violations>
0

> <Metabolite_ID>
BTM00001

> <Reaction>
Hydroxylation of non-terminal aliphatic carbon adjacent to aromatic ring

> <Reaction_ID>
BTMR1077

> <Enzyme(s)>
CYP1A2
CYP2C8
CYP2C9
CYP2D6
CYP3A4

> <Biosystem>
HUMAN

> <Precursor_ID>
TEST0073_Umifenovir

> <Precursor_SMILES>
BrC1=CC=2N(C(=C(C2C(CN(C)C)=C1O)C(OCC)=O)CSC3=CC=CC=C3)C

> <Precursor_InChI>
InChI=1S/C22H25BrN2O3S/c1-5-28-22(27)20-18(13-29-14-9-7-6-8-10-14)25(4)17-11-16(23)21(26)15(19(17)20)12-24(2)3/h6-11,26H,5,12-13H2,1-4H3

> <Precursor_InChIKey>
KCFYEAOKVJSACF-UHFFFAOYSA-N

> <Precursor_ALogP>
5.5049

> <Precursor_Major_Isotope_Mass>
476.0769

$$$$
BTM00002
  CDK     08072417452D

 30 32  0  0  0  0  0  0  0  0999 V2000
   -3.6089   -1.5002    0.0000 Br  0  0  0  0  0  0  0  0  0  0  0  0
   -2.3100   -0.7500    0.0000 C   0  0  0  0  0  0  0  0  0  0  0  0
   -1.0100   -1.5000    0.0000 C   0  0  0  0  0  0  0  0  0  0  0  0
    0.2900   -0.7500    0.0000 C   0  0  0  0  0  0  0  0  0  0  0  0
    1.7200   -1.2100    0.0000 N   0  0  0  0  0  0  0  0  0  0  0  0
    2.6000   -0.0000    0.0000 C   0  0  0  0  0  0  0  0  0  0  0  0
    1.7200    1.2100    0.0000 C   0  0  0  0  0  0  0  0  0  0  0  0
    0.2900    0.7500    0.0000 C   0  0  0  0  0  0  0  0  0  0  0  0
   -1.0100    1.5000    0.0000 C   0  0  0  0  0  0  0  0  0  0  0  0
   -1.0100    3.0000    0.0000 C   0  0  0  0  0  0  0  0  0  0  0  0
   -2.3090    3.7500    0.0000 N   0  0  0  0  0  0  0  0  0  0  0  0
   -2.3090    5.2500    0.0000 C   0  0  0  0  0  0  0  0  0  0  0  0
   -3.6081    3.0000    0.0000 C   0  0  0  0  0  0  0  0  0  0  0  0
   -2.3100    0.7500    0.0000 C   0  0  0  0  0  0  0  0  0  0  0  0
   -3.6089    1.5002    0.0000 O   0  0  0  0  0  0  0  0  0  0  0  0
    2.1853    2.6360    0.0000 C   0  0  0  0  0  0  0  0  0  0  0  0
    3.6529    2.9461    0.0000 O   0  0  0  0  0  0  0  0  0  0  0  0
    4.1182    4.3721    0.0000 C   0  0  0  0  0  0  0  0  0  0  0  0
    5.5858    4.6822    0.0000 C   0  0  0  0  0  0  0  0  0  0  0  0
    1.1830    3.7520    0.0000 O   0  0  0  0  0  0  0  0  0  0  0  0
    4.1000   -0.0000    0.0000 C   0  0  0  0  0  0  0  0  0  0  0  0
    4.8500   -1.2990    0.0000 S   0  0  0  0  0  0  0  0  0  0  0  0
    6.3500   -1.2990    0.0000 C   0  0  0  0  0  0  0  0  0  0  0  0
    7.1002   -0.0001    0.0000 C   0  0  0  0  0  0  0  0  0  0  0  0
    8.6010   -0.0008    0.0000 C   0  0  0  0  0  0  0  0  0  0  0  0
    9.3517   -1.3005    0.0000 C   0  0  0  0  0  0  0  0  0  0  0  0
    8.6015   -2.5994    0.0000 C   0  0  0  0  0  0  0  0  0  0  0  0
    7.1006   -2.5987    0.0000 C   0  0  0  0  0  0  0  0  0  0  0  0
    2.1853   -2.6360    0.0000 C   0  0  0  0  0  0  0  0  0  0  0  0
    0.2890    3.7500    0.0000 O   0  0  0  0  0  0  0  0  0  0  0  0
  1  2  1  0  0  0  0
  2  3  2  0  0  0  0
  3  4  1  0  0  0  0
  4  5  1  0  0  0  0
  5  6  1  0  0  0  0
  6  7  2  0  0  0  0
  7  8  1  0  0  0  0
  4  8  2  0  0  0  0
  8  9  1  0  0  0  0
  9 10  1  0  0  0  0
 10 11  1  0  0  0  0
 11 12  1  0  0  0  0
 11 13  1  0  0  0  0
  9 14  2  0  0  0  0
  2 14  1  0  0  0  0
 14 15  1  0  0  0  0
  7 16  1  0  0  0  0
 16 17  1  0  0  0  0
 17 18  1  0  0  0  0
 18 19  1  0  0  0  0
 16 20  2  0  0  0  0
  6 21  1  0  0  0  0
 21 22  1  0  0  0  0
 22 23  1  0  0  0  0
 23 24  2  0  0  0  0
 24 25  1  0  0  0  0
 25 26  2  0  0  0  0
 26 27  1  0  0  0  0
 27 28  2  0  0  0  0
 23 28  1  0  0  0  0
  5 29  1  0  0  0  0
 30 10  1  0  0  0  0
M  END
> <InChI>
InChI=1S/C22H25BrN2O4S/c1-5-29-22(28)18-16(12-30-13-9-7-6-8-10-13)25(4)15-11-14(23)20(26)19(17(15)18)21(27)24(2)3/h6-11,21,26-27H,5,12H2,1-4H3

> <InChIKey>
VWGXREFZJGRDGF-UHFFFAOYSA-N

> <SMILES>
BrC1=CC=2N(C(=C(C2C(C(N(C)C)O)=C1O)C(OCC)=O)CSC3=CC=CC=C3)C

> <Synonyms>


> <PUBCHEM_CID>


> <Molecular_formula>
C22H25BrN2O4S

> <Major_Isotope_Mass>
492.07184038

> <ALogP>
5.165200000000001

> <Lipinski_Violations>
1

> <Insecticide_Likeness_Violations>
0

> <Post_Em_Herbicide_Likeness_Violations>
0

> <Metabolite_ID>
BTM00002

> <Reaction>
Hydroxylation of non-terminal aliphatic carbon adjacent to aromatic ring

> <Reaction_ID>
BTMR1077

> <Enzyme(s)>
CYP1A2
CYP2C8
CYP2C9
CYP2D6
CYP3A4

> <Biosystem>
HUMAN

> <Precursor_ID>
TEST0073_Umifenovir

> <Precursor_SMILES>
BrC1=CC=2N(C(=C(C2C(CN(C)C)=C1O)C(OCC)=O)CSC3=CC=CC=C3)C

> <Precursor_InChI>
InChI=1S/C22H25BrN2O3S/c1-5-28-22(27)20-18(13-29-14-9-7-6-8-10-14)25(4)17-11-16(23)21(26)15(19(17)20)12-24(2)3/h6-11,26H,5,12-13H2,1-4H3

> <Precursor_InChIKey>
KCFYEAOKVJSACF-UHFFFAOYSA-N

> <Precursor_ALogP>
5.5049

> <Precursor_Major_Isotope_Mass>
476.0769

$$$$
BTM00003
  CDK     08072417452D

 30 32  0  0  0  0  0  0  0  0999 V2000
   -3.6089   -1.5002    0.0000 Br  0  0  0  0  0  0  0  0  0  0  0  0
   -2.3100   -0.7500    0.0000 C   0  0  0  0  0  0  0  0  0  0  0  0
   -1.0100   -1.5000    0.0000 C   0  0  0  0  0  0  0  0  0  0  0  0
    0.2900   -0.7500    0.0000 C   0  0  0  0  0  0  0  0  0  0  0  0
    1.7200   -1.2100    0.0000 N   0  0  0  0  0  0  0  0  0  0  0  0
    2.6000   -0.0000    0.0000 C   0  0  0  0  0  0  0  0  0  0  0  0
    1.7200    1.2100    0.0000 C   0  0  0  0  0  0  0  0  0  0  0  0
    0.2900    0.7500    0.0000 C   0  0  0  0  0  0  0  0  0  0  0  0
   -1.0100    1.5000    0.0000 C   0  0  0  0  0  0  0  0  0  0  0  0
   -1.0100    3.0000    0.0000 C   0  0  0  0  0  0  0  0  0  0  0  0
   -2.3090    3.7500    0.0000 N   0  3  0  0  0  0  0  0  0  0  0  0
   -1.5590    5.0490    0.0000 C   0  0  0  0  0  0  0  0  0  0  0  0
   -3.6081    4.5000    0.0000 C   0  0  0  0  0  0  0  0  0  0  0  0
   -2.3100    0.7500    0.0000 C   0  0  0  0  0  0  0  0  0  0  0  0
   -3.6089    1.5002    0.0000 O   0  0  0  0  0  0  0  0  0  0  0  0
    2.1853    2.6360    0.0000 C   0  0  0  0  0  0  0  0  0  0  0  0
    3.6529    2.9461    0.0000 O   0  0  0  0  0  0  0  0  0  0  0  0
    4.1182    4.3721    0.0000 C   0  0  0  0  0  0  0  0  0  0  0  0
    5.5858    4.6822    0.0000 C   0  0  0  0  0  0  0  0  0  0  0  0
    1.1830    3.7520    0.0000 O   0  0  0  0  0  0  0  0  0  0  0  0
    4.1000   -0.0000    0.0000 C   0  0  0  0  0  0  0  0  0  0  0  0
    4.8500   -1.2990    0.0000 S   0  0  0  0  0  0  0  0  0  0  0  0
    6.3500   -1.2990    0.0000 C   0  0  0  0  0  0  0  0  0  0  0  0
    7.1002   -0.0001    0.0000 C   0  0  0  0  0  0  0  0  0  0  0  0
    8.6010   -0.0008    0.0000 C   0  0  0  0  0  0  0  0  0  0  0  0
    9.3517   -1.3005    0.0000 C   0  0  0  0  0  0  0  0  0  0  0  0
    8.6015   -2.5994    0.0000 C   0  0  0  0  0  0  0  0  0  0  0  0
    7.1006   -2.5987    0.0000 C   0  0  0  0  0  0  0  0  0  0  0  0
    2.1853   -2.6360    0.0000 C   0  0  0  0  0  0  0  0  0  0  0  0
   -3.0590    2.4510    0.0000 O   0  5  0  0  0  0  0  0  0  0  0  0
  1  2  1  0  0  0  0
  2  3  2  0  0  0  0
  3  4  1  0  0  0  0
  4  5  1  0  0  0  0
  5  6  1  0  0  0  0
  6  7  2  0  0  0  0
  7  8  1  0  0  0  0
  4  8  2  0  0  0  0
  8  9  1  0  0  0  0
  9 10  1  0  0  0  0
 10 11  1  0  0  0  0
 11 12  1  0  0  0  0
 11 13  1  0  0  0  0
  9 14  2  0  0  0  0
  2 14  1  0  0  0  0
 14 15  1  0  0  0  0
  7 16  1  0  0  0  0
 16 17  1  0  0  0  0
 17 18  1  0  0  0  0
 18 19  1  0  0  0  0
 16 20  2  0  0  0  0
  6 21  1  0  0  0  0
 21 22  1  0  0  0  0
 22 23  1  0  0  0  0
 23 24  2  0  0  0  0
 24 25  1  0  0  0  0
 25 26  2  0  0  0  0
 26 27  1  0  0  0  0
 27 28  2  0  0  0  0
 23 28  1  0  0  0  0
  5 29  1  0  0  0  0
 11 30  1  0  0  0  0
M  CHG  1  11   1
M  CHG  1  30  -1
M  END
> <InChI>
InChI=1S/C22H25BrN2O4S/c1-5-29-22(27)20-18(13-30-14-9-7-6-8-10-14)24(2)17-11-16(23)21(26)15(19(17)20)12-25(3,4)28/h6-11,26H,5,12-13H2,1-4H3

> <InChIKey>
JQEGCZLRSRNRHE-UHFFFAOYSA-N

> <SMILES>
BrC1=CC=2N(C(=C(C2C(C[N+](C)(C)[O-])=C1O)C(OCC)=O)CSC3=CC=CC=C3)C

> <Synonyms>


> <PUBCHEM_CID>


> <Molecular_formula>
C22H25BrN2O4S

> <Major_Isotope_Mass>
492.07184038

> <ALogP>
5.0998

> <Lipinski_Violations>
0

> <Insecticide_Likeness_Violations>
0

> <Post_Em_Herbicide_Likeness_Violations>
0

> <Metabolite_ID>
BTM00003

> <Reaction>
N-Oxidation of aliphatic tertiary amine

> <Reaction_ID>
BTMR1100

> <Enzyme(s)>
CYP1A2
CYP2D6
CYP3A4

> <Biosystem>
HUMAN

> <Precursor_ID>
TEST0073_Umifenovir

> <Precursor_SMILES>
BrC1=CC=2N(C(=C(C2C(CN(C)C)=C1O)C(OCC)=O)CSC3=CC=CC=C3)C

> <Precursor_InChI>
InChI=1S/C22H25BrN2O3S/c1-5-28-22(27)20-18(13-29-14-9-7-6-8-10-14)25(4)17-11-16(23)21(26)15(19(17)20)12-24(2)3/h6-11,26H,5,12-13H2,1-4H3

> <Precursor_InChIKey>
KCFYEAOKVJSACF-UHFFFAOYSA-N

> <Precursor_ALogP>
5.5049

> <Precursor_Major_Isotope_Mass>
476.0769

$$$$
BTM00004
  CDK     08072417452D

 30 32  0  0  0  0  0  0  0  0999 V2000
   -3.6089   -1.5002    0.0000 Br  0  0  0  0  0  0  0  0  0  0  0  0
   -2.3100   -0.7500    0.0000 C   0  0  0  0  0  0  0  0  0  0  0  0
   -1.0100   -1.5000    0.0000 C   0  0  0  0  0  0  0  0  0  0  0  0
    0.2900   -0.7500    0.0000 C   0  0  0  0  0  0  0  0  0  0  0  0
    1.7200   -1.2100    0.0000 N   0  0  0  0  0  0  0  0  0  0  0  0
    2.6000   -0.0000    0.0000 C   0  0  0  0  0  0  0  0  0  0  0  0
    1.7200    1.2100    0.0000 C   0  0  0  0  0  0  0  0  0  0  0  0
    0.2900    0.7500    0.0000 C   0  0  0  0  0  0  0  0  0  0  0  0
   -1.0100    1.5000    0.0000 C   0  0  0  0  0  0  0  0  0  0  0  0
   -1.0100    3.0000    0.0000 C   0  0  0  0  0  0  0  0  0  0  0  0
   -2.3090    3.7500    0.0000 N   0  0  0  0  0  0  0  0  0  0  0  0
   -2.3090    5.2500    0.0000 C   0  0  0  0  0  0  0  0  0  0  0  0
   -3.6081    3.0000    0.0000 C   0  0  0  0  0  0  0  0  0  0  0  0
   -2.3100    0.7500    0.0000 C   0  0  0  0  0  0  0  0  0  0  0  0
   -3.6089    1.5002    0.0000 O   0  0  0  0  0  0  0  0  0  0  0  0
    2.1853    2.6360    0.0000 C   0  0  0  0  0  0  0  0  0  0  0  0
    3.6529    2.9461    0.0000 O   0  0  0  0  0  0  0  0  0  0  0  0
    4.1182    4.3721    0.0000 C   0  0  0  0  0  0  0  0  0  0  0  0
    5.5858    4.6822    0.0000 C   0  0  0  0  0  0  0  0  0  0  0  0
    1.1830    3.7520    0.0000 O   0  0  0  0  0  0  0  0  0  0  0  0
    4.1000   -0.0000    0.0000 C   0  0  0  0  0  0  0  0  0  0  0  0
    4.8500   -1.2990    0.0000 S   0  0  0  0  0  0  0  0  0  0  0  0
    6.3500   -1.2990    0.0000 C   0  0  0  0  0  0  0  0  0  0  0  0
    7.1002   -0.0001    0.0000 C   0  0  0  0  0  0  0  0  0  0  0  0
    8.6010   -0.0008    0.0000 C   0  0  0  0  0  0  0  0  0  0  0  0
    9.3517   -1.3005    0.0000 C   0  0  0  0  0  0  0  0  0  0  0  0
    8.6015   -2.5994    0.0000 C   0  0  0  0  0  0  0  0  0  0  0  0
    7.1006   -2.5987    0.0000 C   0  0  0  0  0  0  0  0  0  0  0  0
    2.1853   -2.6360    0.0000 C   0  0  0  0  0  0  0  0  0  0  0  0
    4.1000   -2.5981    0.0000 O   0  0  0  0  0  0  0  0  0  0  0  0
  1  2  1  0  0  0  0
  2  3  2  0  0  0  0
  3  4  1  0  0  0  0
  4  5  1  0  0  0  0
  5  6  1  0  0  0  0
  6  7  2  0  0  0  0
  7  8  1  0  0  0  0
  4  8  2  0  0  0  0
  8  9  1  0  0  0  0
  9 10  1  0  0  0  0
 10 11  1  0  0  0  0
 11 12  1  0  0  0  0
 11 13  1  0  0  0  0
  9 14  2  0  0  0  0
  2 14  1  0  0  0  0
 14 15  1  0  0  0  0
  7 16  1  0  0  0  0
 16 17  1  0  0  0  0
 17 18  1  0  0  0  0
 18 19  1  0  0  0  0
 16 20  2  0  0  0  0
  6 21  1  0  0  0  0
 21 22  1  0  0  0  0
 22 23  1  0  0  0  0
 23 24  2  0  0  0  0
 24 25  1  0  0  0  0
 25 26  2  0  0  0  0
 26 27  1  0  0  0  0
 27 28  2  0  0  0  0
 23 28  1  0  0  0  0
  5 29  1  0  0  0  0
 22 30  2  0  0  0  0
M  END
> <InChI>
InChI=1S/C22H25BrN2O4S/c1-5-29-22(27)20-18(13-30(28)14-9-7-6-8-10-14)25(4)17-11-16(23)21(26)15(19(17)20)12-24(2)3/h6-11,26H,5,12-13H2,1-4H3

> <InChIKey>
CTIGWEMWZSPYAS-UHFFFAOYSA-N

> <SMILES>
BrC1=CC=2N(C(=C(C2C(CN(C)C)=C1O)C(OCC)=O)CS(C3=CC=CC=C3)=O)C

> <Synonyms>


> <PUBCHEM_CID>


> <Molecular_formula>
C22H25BrN2O4S

> <Major_Isotope_Mass>
492.07184038

> <ALogP>
4.3931000000000004

> <Lipinski_Violations>
0

> <Insecticide_Likeness_Violations>
0

> <Post_Em_Herbicide_Likeness_Violations>
0

> <Metabolite_ID>
BTM00004

> <Reaction>
S-Oxidation of alkylarylthioether to sulfoxide

> <Reaction_ID>
BTMR0058

> <Enzyme(s)>
CYP1A2
CYP2A6
CYP2B6
CYP2C9
CYP2D6
CYP2E1
CYP3A4

> <Biosystem>
HUMAN

> <Precursor_ID>
TEST0073_Umifenovir

> <Precursor_SMILES>
BrC1=CC=2N(C(=C(C2C(CN(C)C)=C1O)C(OCC)=O)CSC3=CC=CC=C3)C

> <Precursor_InChI>
InChI=1S/C22H25BrN2O3S/c1-5-28-22(27)20-18(13-29-14-9-7-6-8-10-14)25(4)17-11-16(23)21(26)15(19(17)20)12-24(2)3/h6-11,26H,5,12-13H2,1-4H3

> <Precursor_InChIKey>
KCFYEAOKVJSACF-UHFFFAOYSA-N

> <Precursor_ALogP>
5.5049

> <Precursor_Major_Isotope_Mass>
476.0769

$$$$
BTM00005
  CDK     08072417452D

 30 32  0  0  0  0  0  0  0  0999 V2000
   -3.6089   -1.5002    0.0000 Br  0  0  0  0  0  0  0  0  0  0  0  0
   -2.3100   -0.7500    0.0000 C   0  0  0  0  0  0  0  0  0  0  0  0
   -1.0100   -1.5000    0.0000 C   0  0  0  0  0  0  0  0  0  0  0  0
    0.2900   -0.7500    0.0000 C   0  0  0  0  0  0  0  0  0  0  0  0
    1.7200   -1.2100    0.0000 N   0  0  0  0  0  0  0  0  0  0  0  0
    2.6000   -0.0000    0.0000 C   0  0  0  0  0  0  0  0  0  0  0  0
    1.7200    1.2100    0.0000 C   0  0  0  0  0  0  0  0  0  0  0  0
    0.2900    0.7500    0.0000 C   0  0  0  0  0  0  0  0  0  0  0  0
   -1.0100    1.5000    0.0000 C   0  0  0  0  0  0  0  0  0  0  0  0
   -1.0100    3.0000    0.0000 C   0  0  0  0  0  0  0  0  0  0  0  0
   -2.3090    3.7500    0.0000 N   0  0  0  0  0  0  0  0  0  0  0  0
   -2.3090    5.2500    0.0000 C   0  0  0  0  0  0  0  0  0  0  0  0
   -3.6081    3.0000    0.0000 C   0  0  0  0  0  0  0  0  0  0  0  0
   -2.3100    0.7500    0.0000 C   0  0  0  0  0  0  0  0  0  0  0  0
   -3.6089    1.5002    0.0000 O   0  0  0  0  0  0  0  0  0  0  0  0
    2.1853    2.6360    0.0000 C   0  0  0  0  0  0  0  0  0  0  0  0
    3.6529    2.9461    0.0000 O   0  0  0  0  0  0  0  0  0  0  0  0
    4.1182    4.3721    0.0000 C   0  0  0  0  0  0  0  0  0  0  0  0
    5.5858    4.6822    0.0000 C   0  0  0  0  0  0  0  0  0  0  0  0
    1.1830    3.7520    0.0000 O   0  0  0  0  0  0  0  0  0  0  0  0
    4.1000   -0.0000    0.0000 C   0  0  0  0  0  0  0  0  0  0  0  0
    4.8500   -1.2990    0.0000 S   0  0  0  0  0  0  0  0  0  0  0  0
    6.3500   -1.2990    0.0000 C   0  0  0  0  0  0  0  0  0  0  0  0
    7.1002   -0.0001    0.0000 C   0  0  0  0  0  0  0  0  0  0  0  0
    8.6010   -0.0008    0.0000 C   0  0  0  0  0  0  0  0  0  0  0  0
    9.3517   -1.3005    0.0000 C   0  0  0  0  0  0  0  0  0  0  0  0
    8.6015   -2.5994    0.0000 C   0  0  0  0  0  0  0  0  0  0  0  0
    7.1006   -2.5987    0.0000 C   0  0  0  0  0  0  0  0  0  0  0  0
    2.1853   -2.6360    0.0000 C   0  0  0  0  0  0  0  0  0  0  0  0
    6.0510    6.1082    0.0000 O   0  0  0  0  0  0  0  0  0  0  0  0
  1  2  1  0  0  0  0
  2  3  2  0  0  0  0
  3  4  1  0  0  0  0
  4  5  1  0  0  0  0
  5  6  1  0  0  0  0
  6  7  2  0  0  0  0
  7  8  1  0  0  0  0
  4  8  2  0  0  0  0
  8  9  1  0  0  0  0
  9 10  1  0  0  0  0
 10 11  1  0  0  0  0
 11 12  1  0  0  0  0
 11 13  1  0  0  0  0
  9 14  2  0  0  0  0
  2 14  1  0  0  0  0
 14 15  1  0  0  0  0
  7 16  1  0  0  0  0
 16 17  1  0  0  0  0
 17 18  1  0  0  0  0
 18 19  1  0  0  0  0
 16 20  2  0  0  0  0
  6 21  1  0  0  0  0
 21 22  1  0  0  0  0
 22 23  1  0  0  0  0
 23 24  2  0  0  0  0
 24 25  1  0  0  0  0
 25 26  2  0  0  0  0
 26 27  1  0  0  0  0
 27 28  2  0  0  0  0
 23 28  1  0  0  0  0
  5 29  1  0  0  0  0
 30 19  1  0  0  0  0
M  END
> <InChI>
InChI=1S/C22H25BrN2O4S/c1-24(2)12-15-19-17(11-16(23)21(15)27)25(3)18(20(19)22(28)29-10-9-26)13-30-14-7-5-4-6-8-14/h4-8,11,26-27H,9-10,12-13H2,1-3H3

> <InChIKey>
CEXGPZYIZSCZJQ-UHFFFAOYSA-N

> <SMILES>
BrC1=CC=2N(C(=C(C2C(CN(C)C)=C1O)C(OCCO)=O)CSC3=CC=CC=C3)C

> <Synonyms>


> <PUBCHEM_CID>


> <Molecular_formula>
C22H25BrN2O4S

> <Major_Isotope_Mass>
492.07184037999997

> <ALogP>
4.616700000000002

> <Lipinski_Violations>
0

> <Insecticide_Likeness_Violations>
0

> <Post_Em_Herbicide_Likeness_Violations>
0

> <Metabolite_ID>
BTM00005

> <Reaction>
Hydroxylation of terminal methyl

> <Reaction_ID>
BTMR1061

> <Enzyme(s)>
CYP1A2
CYP2A6
CYP2B6
CYP2C8
CYP2C9
CYP2C19
CYP2D6
CYP2E1
CYP3A4

> <Biosystem>
HUMAN

> <Precursor_ID>
TEST0073_Umifenovir

> <Precursor_SMILES>
BrC1=CC=2N(C(=C(C2C(CN(C)C)=C1O)C(OCC)=O)CSC3=CC=CC=C3)C

> <Precursor_InChI>
InChI=1S/C22H25BrN2O3S/c1-5-28-22(27)20-18(13-29-14-9-7-6-8-10-14)25(4)17-11-16(23)21(26)15(19(17)20)12-24(2)3/h6-11,26H,5,12-13H2,1-4H3

> <Precursor_InChIKey>
KCFYEAOKVJSACF-UHFFFAOYSA-N

> <Precursor_ALogP>
5.5049

> <Precursor_Major_Isotope_Mass>
476.0769

$$$$
BTM00006
  CDK     08072417452D

 30 32  0  0  0  0  0  0  0  0999 V2000
   -3.6089   -1.5002    0.0000 Br  0  0  0  0  0  0  0  0  0  0  0  0
   -2.3100   -0.7500    0.0000 C   0  0  0  0  0  0  0  0  0  0  0  0
   -1.0100   -1.5000    0.0000 C   0  0  0  0  0  0  0  0  0  0  0  0
    0.2900   -0.7500    0.0000 C   0  0  0  0  0  0  0  0  0  0  0  0
    1.7200   -1.2100    0.0000 N   0  0  0  0  0  0  0  0  0  0  0  0
    2.6000   -0.0000    0.0000 C   0  0  0  0  0  0  0  0  0  0  0  0
    1.7200    1.2100    0.0000 C   0  0  0  0  0  0  0  0  0  0  0  0
    0.2900    0.7500    0.0000 C   0  0  0  0  0  0  0  0  0  0  0  0
   -1.0100    1.5000    0.0000 C   0  0  0  0  0  0  0  0  0  0  0  0
   -1.0100    3.0000    0.0000 C   0  0  0  0  0  0  0  0  0  0  0  0
   -2.3090    3.7500    0.0000 N   0  0  0  0  0  0  0  0  0  0  0  0
   -2.3090    5.2500    0.0000 C   0  0  0  0  0  0  0  0  0  0  0  0
   -3.6081    3.0000    0.0000 C   0  0  0  0  0  0  0  0  0  0  0  0
   -2.3100    0.7500    0.0000 C   0  0  0  0  0  0  0  0  0  0  0  0
   -3.6089    1.5002    0.0000 O   0  0  0  0  0  0  0  0  0  0  0  0
    2.1853    2.6360    0.0000 C   0  0  0  0  0  0  0  0  0  0  0  0
    3.6529    2.9461    0.0000 O   0  0  0  0  0  0  0  0  0  0  0  0
    4.1182    4.3721    0.0000 C   0  0  0  0  0  0  0  0  0  0  0  0
    5.5858    4.6822    0.0000 C   0  0  0  0  0  0  0  0  0  0  0  0
    1.1830    3.7520    0.0000 O   0  0  0  0  0  0  0  0  0  0  0  0
    4.1000   -0.0000    0.0000 C   0  0  0  0  0  0  0  0  0  0  0  0
    4.8500   -1.2990    0.0000 S   0  0  0  0  0  0  0  0  0  0  0  0
    6.3500   -1.2990    0.0000 C   0  0  0  0  0  0  0  0  0  0  0  0
    7.1002   -0.0001    0.0000 C   0  0  0  0  0  0  0  0  0  0  0  0
    8.6010   -0.0008    0.0000 C   0  0  0  0  0  0  0  0  0  0  0  0
    9.3517   -1.3005    0.0000 C   0  0  0  0  0  0  0  0  0  0  0  0
    8.6015   -2.5994    0.0000 C   0  0  0  0  0  0  0  0  0  0  0  0
    7.1006   -2.5987    0.0000 C   0  0  0  0  0  0  0  0  0  0  0  0
    2.1853   -2.6360    0.0000 C   0  0  0  0  0  0  0  0  0  0  0  0
   -1.0100   -3.0000    0.0000 O   0  0  0  0  0  0  0  0  0  0  0  0
  1  2  1  0  0  0  0
  2  3  2  0  0  0  0
  3  4  1  0  0  0  0
  4  5  1  0  0  0  0
  5  6  1  0  0  0  0
  6  7  2  0  0  0  0
  7  8  1  0  0  0  0
  4  8  2  0  0  0  0
  8  9  1  0  0  0  0
  9 10  1  0  0  0  0
 10 11  1  0  0  0  0
 11 12  1  0  0  0  0
 11 13  1  0  0  0  0
  9 14  2  0  0  0  0
  2 14  1  0  0  0  0
 14 15  1  0  0  0  0
  7 16  1  0  0  0  0
 16 17  1  0  0  0  0
 17 18  1  0  0  0  0
 18 19  1  0  0  0  0
 16 20  2  0  0  0  0
  6 21  1  0  0  0  0
 21 22  1  0  0  0  0
 22 23  1  0  0  0  0
 23 24  2  0  0  0  0
 24 25  1  0  0  0  0
 25 26  2  0  0  0  0
 26 27  1  0  0  0  0
 27 28  2  0  0  0  0
 23 28  1  0  0  0  0
  5 29  1  0  0  0  0
 30  3  1  0  0  0  0
M  END
> <InChI>
InChI=1S/C22H25BrN2O4S/c1-5-29-22(28)17-15(12-30-13-9-7-6-8-10-13)25(4)19-16(17)14(11-24(2)3)20(26)18(23)21(19)27/h6-10,26-27H,5,11-12H2,1-4H3

> <InChIKey>
YCEGXCFMRXOSAK-UHFFFAOYSA-N

> <SMILES>
BrC1=C(C=2N(C(=C(C2C(CN(C)C)=C1O)C(OCC)=O)CSC3=CC=CC=C3)C)O

> <Synonyms>


> <PUBCHEM_CID>


> <Molecular_formula>
C22H25BrN2O4S

> <Major_Isotope_Mass>
492.07184038

> <ALogP>
5.237500000000002

> <Lipinski_Violations>
0

> <Insecticide_Likeness_Violations>
0

> <Post_Em_Herbicide_Likeness_Violations>
0

> <Metabolite_ID>
BTM00006

> <Reaction>
Hydroxylation of aromatic carbon ortho to halide group

> <Reaction_ID>
BTMR1040

> <Enzyme(s)>
CYP1A2
CYP2A6
CYP2B6
CYP2C8
CYP2C9
CYP2C19
CYP2D6
CYP2E1
CYP3A4

> <Biosystem>
HUMAN

> <Precursor_ID>
TEST0073_Umifenovir

> <Precursor_SMILES>
BrC1=CC=2N(C(=C(C2C(CN(C)C)=C1O)C(OCC)=O)CSC3=CC=CC=C3)C

> <Precursor_InChI>
InChI=1S/C22H25BrN2O3S/c1-5-28-22(27)20-18(13-29-14-9-7-6-8-10-14)25(4)17-11-16(23)21(26)15(19(17)20)12-24(2)3/h6-11,26H,5,12-13H2,1-4H3

> <Precursor_InChIKey>
KCFYEAOKVJSACF-UHFFFAOYSA-N

> <Precursor_ALogP>
5.5049

> <Precursor_Major_Isotope_Mass>
476.0769

$$$$
BTM00007
  CDK     08072417452D

 27 29  0  0  0  0  0  0  0  0999 V2000
   -3.6089   -1.5002    0.0000 Br  0  0  0  0  0  0  0  0  0  0  0  0
   -2.3100   -0.7500    0.0000 C   0  0  0  0  0  0  0  0  0  0  0  0
   -1.0100   -1.5000    0.0000 C   0  0  0  0  0  0  0  0  0  0  0  0
    0.2900   -0.7500    0.0000 C   0  0  0  0  0  0  0  0  0  0  0  0
    1.7200   -1.2100    0.0000 N   0  0  0  0  0  0  0  0  0  0  0  0
    2.6000   -0.0000    0.0000 C   0  0  0  0  0  0  0  0  0  0  0  0
    1.7200    1.2100    0.0000 C   0  0  0  0  0  0  0  0  0  0  0  0
    0.2900    0.7500    0.0000 C   0  0  0  0  0  0  0  0  0  0  0  0
   -1.0100    1.5000    0.0000 C   0  0  0  0  0  0  0  0  0  0  0  0
   -1.0100    3.0000    0.0000 C   0  0  0  0  0  0  0  0  0  0  0  0
   -2.3100    0.7500    0.0000 C   0  0  0  0  0  0  0  0  0  0  0  0
   -3.6089    1.5002    0.0000 O   0  0  0  0  0  0  0  0  0  0  0  0
    2.1853    2.6360    0.0000 C   0  0  0  0  0  0  0  0  0  0  0  0
    3.6529    2.9461    0.0000 O   0  0  0  0  0  0  0  0  0  0  0  0
    4.1182    4.3721    0.0000 C   0  0  0  0  0  0  0  0  0  0  0  0
    5.5858    4.6822    0.0000 C   0  0  0  0  0  0  0  0  0  0  0  0
    1.1830    3.7520    0.0000 O   0  0  0  0  0  0  0  0  0  0  0  0
    4.1000   -0.0000    0.0000 C   0  0  0  0  0  0  0  0  0  0  0  0
    4.8500   -1.2990    0.0000 S   0  0  0  0  0  0  0  0  0  0  0  0
    6.3500   -1.2990    0.0000 C   0  0  0  0  0  0  0  0  0  0  0  0
    7.1002   -0.0001    0.0000 C   0  0  0  0  0  0  0  0  0  0  0  0
    8.6010   -0.0008    0.0000 C   0  0  0  0  0  0  0  0  0  0  0  0
    9.3517   -1.3005    0.0000 C   0  0  0  0  0  0  0  0  0  0  0  0
    8.6015   -2.5994    0.0000 C   0  0  0  0  0  0  0  0  0  0  0  0
    7.1006   -2.5987    0.0000 C   0  0  0  0  0  0  0  0  0  0  0  0
    2.1853   -2.6360    0.0000 C   0  0  0  0  0  0  0  0  0  0  0  0
   -2.3090    3.7500    0.0000 O   0  0  0  0  0  0  0  0  0  0  0  0
  1  2  1  0  0  0  0
  2  3  2  0  0  0  0
  3  4  1  0  0  0  0
  4  5  1  0  0  0  0
  5  6  1  0  0  0  0
  6  7  2  0  0  0  0
  7  8  1  0  0  0  0
  4  8  2  0  0  0  0
  8  9  1  0  0  0  0
  9 10  1  0  0  0  0
  9 11  2  0  0  0  0
  2 11  1  0  0  0  0
 11 12  1  0  0  0  0
  7 13  1  0  0  0  0
 13 14  1  0  0  0  0
 14 15  1  0  0  0  0
 15 16  1  0  0  0  0
 13 17  2  0  0  0  0
  6 18  1  0  0  0  0
 18 19  1  0  0  0  0
 19 20  1  0  0  0  0
 20 21  2  0  0  0  0
 21 22  1  0  0  0  0
 22 23  2  0  0  0  0
 23 24  1  0  0  0  0
 24 25  2  0  0  0  0
 20 25  1  0  0  0  0
  5 26  1  0  0  0  0
 10 27  2  0  0  0  0
M  END
> <InChI>
InChI=1S/C20H18BrNO4S/c1-3-26-20(25)18-16(11-27-12-7-5-4-6-8-12)22(2)15-9-14(21)19(24)13(10-23)17(15)18/h4-10,24H,3,11H2,1-2H3

> <InChIKey>
IFVUXWHYYCIYAK-UHFFFAOYSA-N

> <SMILES>
BrC1=CC=2N(C(=C(C2C(C=O)=C1O)C(OCC)=O)CSC3=CC=CC=C3)C

> <Synonyms>


> <PUBCHEM_CID>


> <Molecular_formula>
C20H18BrNO4S

> <Major_Isotope_Mass>
447.013991156

> <ALogP>
5.1907000000000005

> <Lipinski_Violations>
1

> <Insecticide_Likeness_Violations>
0

> <Post_Em_Herbicide_Likeness_Violations>
0

> <Metabolite_ID>
BTM00007

> <Reaction>
N-Dealkylation of acyclic tertiary amine

> <Reaction_ID>
BTMR1142

> <Enzyme(s)>
CYP1A2
CYP2A6
CYP2B6
CYP2C8
CYP2C9
CYP2C19
CYP2D6
CYP2E1
CYP3A4

> <Biosystem>
HUMAN

> <Precursor_ID>
TEST0073_Umifenovir

> <Precursor_SMILES>
BrC1=CC=2N(C(=C(C2C(CN(C)C)=C1O)C(OCC)=O)CSC3=CC=CC=C3)C

> <Precursor_InChI>
InChI=1S/C22H25BrN2O3S/c1-5-28-22(27)20-18(13-29-14-9-7-6-8-10-14)25(4)17-11-16(23)21(26)15(19(17)20)12-24(2)3/h6-11,26H,5,12-13H2,1-4H3

> <Precursor_InChIKey>
KCFYEAOKVJSACF-UHFFFAOYSA-N

> <Precursor_ALogP>
5.5049

> <Precursor_Major_Isotope_Mass>
476.0769

$$$$
BTM00008
  CDK     08072417452D

  3  2  0  0  0  0  0  0  0  0999 V2000
   -0.0000    0.7500    0.0000 N   0  0  0  0  0  0  0  0  0  0  0  0
   -1.2990    0.0000    0.0000 C   0  0  0  0  0  0  0  0  0  0  0  0
    0.0000    2.2500    0.0000 C   0  0  0  0  0  0  0  0  0  0  0  0
  1  2  1  0  0  0  0
  1  3  1  0  0  0  0
M  END
> <InChI>
InChI=1S/C2H7N/c1-3-2/h3H,1-2H3

> <InChIKey>
ROSDSFDQCJNGOL-UHFFFAOYSA-N

> <SMILES>
N(C)C

> <Synonyms>


> <PUBCHEM_CID>


> <Molecular_formula>
C2H7N

> <Major_Isotope_Mass>
45.057849223999995

> <ALogP>
-0.21580000000000035

> <Lipinski_Violations>
0

> <Insecticide_Likeness_Violations>
0

> <Post_Em_Herbicide_Likeness_Violations>
0

> <Metabolite_ID>
BTM00008

> <Reaction>
N-Dealkylation of acyclic tertiary amine

> <Reaction_ID>
BTMR1142

> <Enzyme(s)>
CYP1A2
CYP2A6
CYP2B6
CYP2C8
CYP2C9
CYP2C19
CYP2D6
CYP2E1
CYP3A4

> <Biosystem>
HUMAN

> <Precursor_ID>
TEST0073_Umifenovir

> <Precursor_SMILES>
BrC1=CC=2N(C(=C(C2C(CN(C)C)=C1O)C(OCC)=O)CSC3=CC=CC=C3)C

> <Precursor_InChI>
InChI=1S/C22H25BrN2O3S/c1-5-28-22(27)20-18(13-29-14-9-7-6-8-10-14)25(4)17-11-16(23)21(26)15(19(17)20)12-24(2)3/h6-11,26H,5,12-13H2,1-4H3

> <Precursor_InChIKey>
KCFYEAOKVJSACF-UHFFFAOYSA-N

> <Precursor_ALogP>
5.5049

> <Precursor_Major_Isotope_Mass>
476.0769

$$$$
BTM00009
  CDK     08072417452D

 28 30  0  0  0  0  0  0  0  0999 V2000
   -3.6089   -1.5002    0.0000 Br  0  0  0  0  0  0  0  0  0  0  0  0
   -2.3100   -0.7500    0.0000 C   0  0  0  0  0  0  0  0  0  0  0  0
   -1.0100   -1.5000    0.0000 C   0  0  0  0  0  0  0  0  0  0  0  0
    0.2900   -0.7500    0.0000 C   0  0  0  0  0  0  0  0  0  0  0  0
    1.7200   -1.2100    0.0000 N   0  0  0  0  0  0  0  0  0  0  0  0
    2.6000   -0.0000    0.0000 C   0  0  0  0  0  0  0  0  0  0  0  0
    1.7200    1.2100    0.0000 C   0  0  0  0  0  0  0  0  0  0  0  0
    0.2900    0.7500    0.0000 C   0  0  0  0  0  0  0  0  0  0  0  0
   -1.0100    1.5000    0.0000 C   0  0  0  0  0  0  0  0  0  0  0  0
   -1.0100    3.0000    0.0000 C   0  0  0  0  0  0  0  0  0  0  0  0
   -2.3090    3.7500    0.0000 N   0  0  0  0  0  0  0  0  0  0  0  0
   -2.3090    5.2500    0.0000 C   0  0  0  0  0  0  0  0  0  0  0  0
   -2.3100    0.7500    0.0000 C   0  0  0  0  0  0  0  0  0  0  0  0
   -3.6089    1.5002    0.0000 O   0  0  0  0  0  0  0  0  0  0  0  0
    2.1853    2.6360    0.0000 C   0  0  0  0  0  0  0  0  0  0  0  0
    3.6529    2.9461    0.0000 O   0  0  0  0  0  0  0  0  0  0  0  0
    4.1182    4.3721    0.0000 C   0  0  0  0  0  0  0  0  0  0  0  0
    5.5858    4.6822    0.0000 C   0  0  0  0  0  0  0  0  0  0  0  0
    1.1830    3.7520    0.0000 O   0  0  0  0  0  0  0  0  0  0  0  0
    4.1000   -0.0000    0.0000 C   0  0  0  0  0  0  0  0  0  0  0  0
    4.8500   -1.2990    0.0000 S   0  0  0  0  0  0  0  0  0  0  0  0
    6.3500   -1.2990    0.0000 C   0  0  0  0  0  0  0  0  0  0  0  0
    7.1002   -0.0001    0.0000 C   0  0  0  0  0  0  0  0  0  0  0  0
    8.6010   -0.0008    0.0000 C   0  0  0  0  0  0  0  0  0  0  0  0
    9.3517   -1.3005    0.0000 C   0  0  0  0  0  0  0  0  0  0  0  0
    8.6015   -2.5994    0.0000 C   0  0  0  0  0  0  0  0  0  0  0  0
    7.1006   -2.5987    0.0000 C   0  0  0  0  0  0  0  0  0  0  0  0
    2.1853   -2.6360    0.0000 C   0  0  0  0  0  0  0  0  0  0  0  0
  1  2  1  0  0  0  0
  2  3  2  0  0  0  0
  3  4  1  0  0  0  0
  4  5  1  0  0  0  0
  5  6  1  0  0  0  0
  6  7  2  0  0  0  0
  7  8  1  0  0  0  0
  4  8  2  0  0  0  0
  8  9  1  0  0  0  0
  9 10  1  0  0  0  0
 10 11  1  0  0  0  0
 11 12  1  0  0  0  0
  9 13  2  0  0  0  0
  2 13  1  0  0  0  0
 13 14  1  0  0  0  0
  7 15  1  0  0  0  0
 15 16  1  0  0  0  0
 16 17  1  0  0  0  0
 17 18  1  0  0  0  0
 15 19  2  0  0  0  0
  6 20  1  0  0  0  0
 20 21  1  0  0  0  0
 21 22  1  0  0  0  0
 22 23  2  0  0  0  0
 23 24  1  0  0  0  0
 24 25  2  0  0  0  0
 25 26  1  0  0  0  0
 26 27  2  0  0  0  0
 22 27  1  0  0  0  0
  5 28  1  0  0  0  0
M  END
> <InChI>
InChI=1S/C21H23BrN2O3S/c1-4-27-21(26)19-17(12-28-13-8-6-5-7-9-13)24(3)16-10-15(22)20(25)14(11-23-2)18(16)19/h5-10,23,25H,4,11-12H2,1-3H3

> <InChIKey>
JIQJHSYZKOCTIF-UHFFFAOYSA-N

> <SMILES>
BrC1=CC=2N(C(=C(C2C(CNC)=C1O)C(OCC)=O)CSC3=CC=CC=C3)C

> <Synonyms>


> <PUBCHEM_CID>


> <Molecular_formula>
C21H23BrN2O3S

> <Major_Isotope_Mass>
462.061275696

> <ALogP>
4.968999999999999

> <Lipinski_Violations>
1

> <Insecticide_Likeness_Violations>
0

> <Post_Em_Herbicide_Likeness_Violations>
0

> <Metabolite_ID>
BTM00009

> <Reaction>
N-Dealkylation of acyclic tertiary amine

> <Reaction_ID>
BTMR1142

> <Enzyme(s)>
CYP1A2
CYP2A6
CYP2B6
CYP2C8
CYP2C9
CYP2C19
CYP2D6
CYP2E1
CYP3A4

> <Biosystem>
HUMAN

> <Precursor_ID>
TEST0073_Umifenovir

> <Precursor_SMILES>
BrC1=CC=2N(C(=C(C2C(CN(C)C)=C1O)C(OCC)=O)CSC3=CC=CC=C3)C

> <Precursor_InChI>
InChI=1S/C22H25BrN2O3S/c1-5-28-22(27)20-18(13-29-14-9-7-6-8-10-14)25(4)17-11-16(23)21(26)15(19(17)20)12-24(2)3/h6-11,26H,5,12-13H2,1-4H3

> <Precursor_InChIKey>
KCFYEAOKVJSACF-UHFFFAOYSA-N

> <Precursor_ALogP>
5.5049

> <Precursor_Major_Isotope_Mass>
476.0769

$$$$
