BTM00001
  CDK     08072417452D

 28 32  0  0  1  0  0  0  0  0999 V2000
   -2.3100    0.0000    0.0000 O   0  0  0  0  0  0  0  0  0  0  0  0
   -1.4300   -1.2100    0.0000 C   0  0  1  0  0  0  0  0  0  0  0  0
    0.0000   -0.7500    0.0000 C   0  0  2  0  0  0  0  0  0  0  0  0
    0.0000    0.7500    0.0000 C   0  0  1  0  0  0  0  0  0  0  0  0
    1.4300    1.2100    0.0000 C   0  0  1  0  0  0  0  0  0  0  0  0
    2.3100    0.0000    0.0000 O   0  0  0  0  0  0  0  0  0  0  0  0
    1.4300   -1.2100    0.0000 C   0  0  0  0  0  0  0  0  0  0  0  0
    1.8953    2.6360    0.0000 C   0  0  0  0  0  0  0  0  0  0  0  0
    0.8920    3.7523    0.0000 C   0  0  0  0  0  0  0  0  0  0  0  0
    1.3573    5.1783    0.0000 C   0  0  0  0  0  0  0  0  0  0  0  0
    0.3552    6.2944    0.0000 O   0  0  0  0  0  0  0  0  0  0  0  0
    0.8207    7.7203    0.0000 C   0  0  0  0  0  0  0  0  0  0  0  0
    2.8258    5.4880    0.0000 C   0  0  0  0  0  0  0  0  0  0  0  0
    3.2911    6.9141    0.0000 O   0  0  0  0  0  0  0  0  0  0  0  0
    4.7587    7.2241    0.0000 C   0  0  0  0  0  0  0  0  0  0  0  0
    3.8291    4.3718    0.0000 C   0  0  0  0  0  0  0  0  0  0  0  0
    3.3638    2.9458    0.0000 C   0  0  0  0  0  0  0  0  0  0  0  0
   -1.4300    1.2100    0.0000 C   0  0  0  0  0  0  0  0  0  0  0  0
   -1.8953   -2.6360    0.0000 C   0  0  0  0  0  0  0  0  0  0  0  0
   -3.3636   -2.9465    0.0000 C   0  0  0  0  0  0  0  0  0  0  0  0
   -3.8299   -4.3731    0.0000 C   0  0  0  0  0  0  0  0  0  0  0  0
   -5.2012   -4.9862    0.0000 O   0  0  0  0  0  0  0  0  0  0  0  0
   -5.0476   -6.4744    0.0000 C   0  0  0  0  0  0  0  0  0  0  0  0
   -3.5844   -6.7868    0.0000 O   0  0  0  0  0  0  0  0  0  0  0  0
   -2.8277   -5.4892    0.0000 C   0  0  0  0  0  0  0  0  0  0  0  0
   -1.3594   -5.1787    0.0000 C   0  0  0  0  0  0  0  0  0  0  0  0
   -0.8931   -3.7521    0.0000 C   0  0  0  0  0  0  0  0  0  0  0  0
    0.5746   -3.4425    0.0000 O   0  0  0  0  0  0  0  0  0  0  0  0
  1  2  1  0  0  0  0
  2  3  1  0  0  0  0
  3  4  1  0  0  0  0
  4  5  1  0  0  0  0
  5  6  1  0  0  0  0
  6  7  1  0  0  0  0
  3  7  1  6  0  0  0
  5  8  1  6  0  0  0
  8  9  2  0  0  0  0
  9 10  1  0  0  0  0
 10 11  1  0  0  0  0
 11 12  1  0  0  0  0
 10 13  2  0  0  0  0
 13 14  1  0  0  0  0
 14 15  1  0  0  0  0
 13 16  1  0  0  0  0
 16 17  2  0  0  0  0
  8 17  1  0  0  0  0
  4 18  1  6  0  0  0
  1 18  1  0  0  0  0
  2 19  1  1  0  0  0
 19 20  1  0  0  0  0
 20 21  2  0  0  0  0
 21 22  1  0  0  0  0
 22 23  1  0  0  0  0
 23 24  1  0  0  0  0
 24 25  1  0  0  0  0
 21 25  1  0  0  0  0
 25 26  2  0  0  0  0
 26 27  1  0  0  0  0
 19 27  2  0  0  0  0
 28 27  1  0  0  0  0
M  END
> <InChI>
InChI=1S/C21H22O7/c1-23-16-4-3-11(5-17(16)24-2)20-13-8-26-21(14(13)9-25-20)12-6-18-19(7-15(12)22)28-10-27-18/h3-7,13-14,20-22H,8-10H2,1-2H3/t13-,14-,20-,21+/m0/s1

> <InChIKey>
VNSXOEAITDCPNU-MFRYECHYSA-N

> <SMILES>
O1[C@@H]([C@@H]2[C@@H]([C@@H](OC2)C3=CC(OC)=C(OC)C=C3)C1)C=4C=C5OCOC5=CC4O

> <Synonyms>


> <PUBCHEM_CID>


> <Molecular_formula>
C21H22O7

> <Major_Isotope_Mass>
386.136553044

> <ALogP>
2.168700000000001

> <Lipinski_Violations>
0

> <Insecticide_Likeness_Violations>
0

> <Post_Em_Herbicide_Likeness_Violations>
0

> <Metabolite_ID>
BTM00001

> <Reaction>
Aromatic hydroxylation of fused benzene ring

> <Reaction_ID>
BTMR1030

> <Enzyme(s)>
CYP1A2
CYP2A6
CYP2B6
CYP2C8
CYP2C9
CYP2C19
CYP2D6
CYP2E1
CYP3A4

> <Biosystem>
HUMAN

> <Precursor_ID>
TEST0071_Fargesin

> <Precursor_SMILES>
O1[C@@H]([C@@H]2[C@@H]([C@@H](OC2)C3=CC(OC)=C(OC)C=C3)C1)C=4C=C5OCOC5=CC4

> <Precursor_InChI>
InChI=1S/C21H22O6/c1-22-16-5-3-12(7-18(16)23-2)20-14-9-25-21(15(14)10-24-20)13-4-6-17-19(8-13)27-11-26-17/h3-8,14-15,20-21H,9-11H2,1-2H3/t14-,15-,20-,21+/m0/s1

> <Precursor_InChIKey>
AWOGQCSIVCQXBT-LATRNWQMSA-N

> <Precursor_ALogP>
2.436100

> <Precursor_Major_Isotope_Mass>
370.1416

$$$$
BTM00002
  CDK     08072417452D

 26 30  0  0  1  0  0  0  0  0999 V2000
   -2.3100    0.0000    0.0000 O   0  0  0  0  0  0  0  0  0  0  0  0
   -1.4300   -1.2100    0.0000 C   0  0  1  0  0  0  0  0  0  0  0  0
    0.0000   -0.7500    0.0000 C   0  0  2  0  0  0  0  0  0  0  0  0
    0.0000    0.7500    0.0000 C   0  0  1  0  0  0  0  0  0  0  0  0
    1.4300    1.2100    0.0000 C   0  0  1  0  0  0  0  0  0  0  0  0
    2.3100    0.0000    0.0000 O   0  0  0  0  0  0  0  0  0  0  0  0
    1.4300   -1.2100    0.0000 C   0  0  0  0  0  0  0  0  0  0  0  0
    1.8953    2.6360    0.0000 C   0  0  0  0  0  0  0  0  0  0  0  0
    0.8920    3.7523    0.0000 C   0  0  0  0  0  0  0  0  0  0  0  0
    1.3573    5.1783    0.0000 C   0  0  0  0  0  0  0  0  0  0  0  0
    0.3552    6.2944    0.0000 O   0  0  0  0  0  0  0  0  0  0  0  0
    0.8207    7.7203    0.0000 C   0  0  0  0  0  0  0  0  0  0  0  0
    2.8258    5.4880    0.0000 C   0  0  0  0  0  0  0  0  0  0  0  0
    3.2911    6.9141    0.0000 O   0  0  0  0  0  0  0  0  0  0  0  0
    3.8291    4.3718    0.0000 C   0  0  0  0  0  0  0  0  0  0  0  0
    3.3638    2.9458    0.0000 C   0  0  0  0  0  0  0  0  0  0  0  0
   -1.4300    1.2100    0.0000 C   0  0  0  0  0  0  0  0  0  0  0  0
   -1.8953   -2.6360    0.0000 C   0  0  0  0  0  0  0  0  0  0  0  0
   -3.3853   -2.9518    0.0000 C   0  0  0  0  0  0  0  0  0  0  0  0
   -3.8381   -4.3789    0.0000 C   0  0  0  0  0  0  0  0  0  0  0  0
   -5.1963   -5.0063    0.0000 O   0  0  0  0  0  0  0  0  0  0  0  0
   -4.9676   -6.5341    0.0000 C   0  0  0  0  0  0  0  0  0  0  0  0
   -3.5713   -6.7727    0.0000 O   0  0  0  0  0  0  0  0  0  0  0  0
   -2.8231   -5.5103    0.0000 C   0  0  0  0  0  0  0  0  0  0  0  0
   -1.3553   -5.2146    0.0000 C   0  0  0  0  0  0  0  0  0  0  0  0
   -0.8803   -3.7674    0.0000 C   0  0  0  0  0  0  0  0  0  0  0  0
  1  2  1  0  0  0  0
  2  3  1  0  0  0  0
  3  4  1  0  0  0  0
  4  5  1  0  0  0  0
  5  6  1  0  0  0  0
  6  7  1  0  0  0  0
  3  7  1  6  0  0  0
  5  8  1  6  0  0  0
  8  9  2  0  0  0  0
  9 10  1  0  0  0  0
 10 11  1  0  0  0  0
 11 12  1  0  0  0  0
 10 13  2  0  0  0  0
 13 14  1  0  0  0  0
 13 15  1  0  0  0  0
 15 16  2  0  0  0  0
  8 16  1  0  0  0  0
  4 17  1  6  0  0  0
  1 17  1  0  0  0  0
  2 18  1  1  0  0  0
 18 19  1  0  0  0  0
 19 20  2  0  0  0  0
 20 21  1  0  0  0  0
 21 22  1  0  0  0  0
 22 23  1  0  0  0  0
 23 24  1  0  0  0  0
 20 24  1  0  0  0  0
 24 25  2  0  0  0  0
 25 26  1  0  0  0  0
 18 26  2  0  0  0  0
M  END
> <InChI>
InChI=1S/C20H20O6/c1-22-17-6-11(2-4-15(17)21)19-13-8-24-20(14(13)9-23-19)12-3-5-16-18(7-12)26-10-25-16/h2-7,13-14,19-21H,8-10H2,1H3/t13-,14-,19-,20+/m0/s1

> <InChIKey>
VBIRCRCPHNUJAS-WZBLMQSHSA-N

> <SMILES>
O1[C@@H]([C@@H]2[C@@H]([C@@H](OC2)C3=CC(OC)=C(O)C=C3)C1)C=4C=C5OCOC5=CC4

> <Synonyms>


> <PUBCHEM_CID>


> <Molecular_formula>
C20H20O6

> <Major_Isotope_Mass>
356.12598835999995

> <ALogP>
2.185100000000001

> <Lipinski_Violations>
0

> <Insecticide_Likeness_Violations>
0

> <Post_Em_Herbicide_Likeness_Violations>
0

> <Metabolite_ID>
BTM00002

> <Reaction>
O-Dealkylation

> <Reaction_ID>
BTMR0052

> <Enzyme(s)>
CYP1A2
CYP2A6
CYP2C9
CYP2C19
CYP2D6
CYP2E1
CYP3A4

> <Biosystem>
HUMAN

> <Precursor_ID>
TEST0071_Fargesin

> <Precursor_SMILES>
O1[C@@H]([C@@H]2[C@@H]([C@@H](OC2)C3=CC(OC)=C(OC)C=C3)C1)C=4C=C5OCOC5=CC4

> <Precursor_InChI>
InChI=1S/C21H22O6/c1-22-16-5-3-12(7-18(16)23-2)20-14-9-25-21(15(14)10-24-20)13-4-6-17-19(8-13)27-11-26-17/h3-8,14-15,20-21H,9-11H2,1-2H3/t14-,15-,20-,21+/m0/s1

> <Precursor_InChIKey>
AWOGQCSIVCQXBT-LATRNWQMSA-N

> <Precursor_ALogP>
2.436100

> <Precursor_Major_Isotope_Mass>
370.1416

$$$$
BTM00003
  CDK     08072417452D

 26 30  0  0  1  0  0  0  0  0999 V2000
   -2.3100    0.0000    0.0000 O   0  0  0  0  0  0  0  0  0  0  0  0
   -1.4300   -1.2100    0.0000 C   0  0  1  0  0  0  0  0  0  0  0  0
    0.0000   -0.7500    0.0000 C   0  0  2  0  0  0  0  0  0  0  0  0
    0.0000    0.7500    0.0000 C   0  0  1  0  0  0  0  0  0  0  0  0
    1.4300    1.2100    0.0000 C   0  0  1  0  0  0  0  0  0  0  0  0
    2.3100    0.0000    0.0000 O   0  0  0  0  0  0  0  0  0  0  0  0
    1.4300   -1.2100    0.0000 C   0  0  0  0  0  0  0  0  0  0  0  0
    1.8953    2.6360    0.0000 C   0  0  0  0  0  0  0  0  0  0  0  0
    0.8920    3.7523    0.0000 C   0  0  0  0  0  0  0  0  0  0  0  0
    1.3573    5.1783    0.0000 C   0  0  0  0  0  0  0  0  0  0  0  0
    0.3552    6.2944    0.0000 O   0  0  0  0  0  0  0  0  0  0  0  0
    2.8258    5.4880    0.0000 C   0  0  0  0  0  0  0  0  0  0  0  0
    3.2911    6.9141    0.0000 O   0  0  0  0  0  0  0  0  0  0  0  0
    4.7587    7.2241    0.0000 C   0  0  0  0  0  0  0  0  0  0  0  0
    3.8291    4.3718    0.0000 C   0  0  0  0  0  0  0  0  0  0  0  0
    3.3638    2.9458    0.0000 C   0  0  0  0  0  0  0  0  0  0  0  0
   -1.4300    1.2100    0.0000 C   0  0  0  0  0  0  0  0  0  0  0  0
   -1.8953   -2.6360    0.0000 C   0  0  0  0  0  0  0  0  0  0  0  0
   -3.3853   -2.9518    0.0000 C   0  0  0  0  0  0  0  0  0  0  0  0
   -3.8381   -4.3789    0.0000 C   0  0  0  0  0  0  0  0  0  0  0  0
   -5.1963   -5.0063    0.0000 O   0  0  0  0  0  0  0  0  0  0  0  0
   -4.9676   -6.5341    0.0000 C   0  0  0  0  0  0  0  0  0  0  0  0
   -3.5713   -6.7727    0.0000 O   0  0  0  0  0  0  0  0  0  0  0  0
   -2.8231   -5.5103    0.0000 C   0  0  0  0  0  0  0  0  0  0  0  0
   -1.3553   -5.2146    0.0000 C   0  0  0  0  0  0  0  0  0  0  0  0
   -0.8803   -3.7674    0.0000 C   0  0  0  0  0  0  0  0  0  0  0  0
  1  2  1  0  0  0  0
  2  3  1  0  0  0  0
  3  4  1  0  0  0  0
  4  5  1  0  0  0  0
  5  6  1  0  0  0  0
  6  7  1  0  0  0  0
  3  7  1  6  0  0  0
  5  8  1  6  0  0  0
  8  9  2  0  0  0  0
  9 10  1  0  0  0  0
 10 11  1  0  0  0  0
 10 12  2  0  0  0  0
 12 13  1  0  0  0  0
 13 14  1  0  0  0  0
 12 15  1  0  0  0  0
 15 16  2  0  0  0  0
  8 16  1  0  0  0  0
  4 17  1  6  0  0  0
  1 17  1  0  0  0  0
  2 18  1  1  0  0  0
 18 19  1  0  0  0  0
 19 20  2  0  0  0  0
 20 21  1  0  0  0  0
 21 22  1  0  0  0  0
 22 23  1  0  0  0  0
 23 24  1  0  0  0  0
 20 24  1  0  0  0  0
 24 25  2  0  0  0  0
 25 26  1  0  0  0  0
 18 26  2  0  0  0  0
M  END
> <InChI>
InChI=1S/C20H20O6/c1-22-16-4-2-11(6-15(16)21)19-13-8-24-20(14(13)9-23-19)12-3-5-17-18(7-12)26-10-25-17/h2-7,13-14,19-21H,8-10H2,1H3/t13-,14-,19-,20+/m0/s1

> <InChIKey>
BURBOJZOZGMMQF-WZBLMQSHSA-N

> <SMILES>
O1[C@@H]([C@@H]2[C@@H]([C@@H](OC2)C3=CC(O)=C(OC)C=C3)C1)C=4C=C5OCOC5=CC4

> <Synonyms>


> <PUBCHEM_CID>


> <Molecular_formula>
C20H20O6

> <Major_Isotope_Mass>
356.12598835999995

> <ALogP>
2.185100000000001

> <Lipinski_Violations>
0

> <Insecticide_Likeness_Violations>
0

> <Post_Em_Herbicide_Likeness_Violations>
0

> <Metabolite_ID>
BTM00003

> <Reaction>
O-Dealkylation

> <Reaction_ID>
BTMR0052

> <Enzyme(s)>
CYP1A2
CYP2A6
CYP2C9
CYP2C19
CYP2D6
CYP2E1
CYP3A4

> <Biosystem>
HUMAN

> <Precursor_ID>
TEST0071_Fargesin

> <Precursor_SMILES>
O1[C@@H]([C@@H]2[C@@H]([C@@H](OC2)C3=CC(OC)=C(OC)C=C3)C1)C=4C=C5OCOC5=CC4

> <Precursor_InChI>
InChI=1S/C21H22O6/c1-22-16-5-3-12(7-18(16)23-2)20-14-9-25-21(15(14)10-24-20)13-4-6-17-19(8-13)27-11-26-17/h3-8,14-15,20-21H,9-11H2,1-2H3/t14-,15-,20-,21+/m0/s1

> <Precursor_InChIKey>
AWOGQCSIVCQXBT-LATRNWQMSA-N

> <Precursor_ALogP>
2.436100

> <Precursor_Major_Isotope_Mass>
370.1416

$$$$
BTM00004
  CDK     08072417452D

 26 29  0  0  1  0  0  0  0  0999 V2000
   -2.3100    0.0000    0.0000 O   0  0  0  0  0  0  0  0  0  0  0  0
   -1.4300   -1.2100    0.0000 C   0  0  1  0  0  0  0  0  0  0  0  0
    0.0000   -0.7500    0.0000 C   0  0  2  0  0  0  0  0  0  0  0  0
    0.0000    0.7500    0.0000 C   0  0  1  0  0  0  0  0  0  0  0  0
    1.4300    1.2100    0.0000 C   0  0  1  0  0  0  0  0  0  0  0  0
    2.3100    0.0000    0.0000 O   0  0  0  0  0  0  0  0  0  0  0  0
    1.4300   -1.2100    0.0000 C   0  0  0  0  0  0  0  0  0  0  0  0
    1.8953    2.6360    0.0000 C   0  0  0  0  0  0  0  0  0  0  0  0
    0.8920    3.7523    0.0000 C   0  0  0  0  0  0  0  0  0  0  0  0
    1.3573    5.1783    0.0000 C   0  0  0  0  0  0  0  0  0  0  0  0
    0.3552    6.2944    0.0000 O   0  0  0  0  0  0  0  0  0  0  0  0
    0.8207    7.7203    0.0000 C   0  0  0  0  0  0  0  0  0  0  0  0
    2.8258    5.4880    0.0000 C   0  0  0  0  0  0  0  0  0  0  0  0
    3.2911    6.9141    0.0000 O   0  0  0  0  0  0  0  0  0  0  0  0
    4.7587    7.2241    0.0000 C   0  0  0  0  0  0  0  0  0  0  0  0
    3.8291    4.3718    0.0000 C   0  0  0  0  0  0  0  0  0  0  0  0
    3.3638    2.9458    0.0000 C   0  0  0  0  0  0  0  0  0  0  0  0
   -1.4300    1.2100    0.0000 C   0  0  0  0  0  0  0  0  0  0  0  0
   -1.8953   -2.6360    0.0000 C   0  0  0  0  0  0  0  0  0  0  0  0
   -0.8920   -3.7523    0.0000 C   0  0  0  0  0  0  0  0  0  0  0  0
   -1.3573   -5.1783    0.0000 C   0  0  0  0  0  0  0  0  0  0  0  0
   -0.3552   -6.2944    0.0000 O   0  0  0  0  0  0  0  0  0  0  0  0
   -3.2911   -6.9141    0.0000 O   0  0  0  0  0  0  0  0  0  0  0  0
   -2.8258   -5.4880    0.0000 C   0  0  0  0  0  0  0  0  0  0  0  0
   -3.8291   -4.3718    0.0000 C   0  0  0  0  0  0  0  0  0  0  0  0
   -3.3638   -2.9458    0.0000 C   0  0  0  0  0  0  0  0  0  0  0  0
  1  2  1  0  0  0  0
  2  3  1  0  0  0  0
  3  4  1  0  0  0  0
  4  5  1  0  0  0  0
  5  6  1  0  0  0  0
  6  7  1  0  0  0  0
  3  7  1  6  0  0  0
  5  8  1  6  0  0  0
  8  9  2  0  0  0  0
  9 10  1  0  0  0  0
 10 11  1  0  0  0  0
 11 12  1  0  0  0  0
 10 13  2  0  0  0  0
 13 14  1  0  0  0  0
 14 15  1  0  0  0  0
 13 16  1  0  0  0  0
 16 17  2  0  0  0  0
  8 17  1  0  0  0  0
  4 18  1  6  0  0  0
  1 18  1  0  0  0  0
  2 19  1  1  0  0  0
 19 20  1  0  0  0  0
 20 21  2  0  0  0  0
 21 22  1  0  0  0  0
 23 24  1  0  0  0  0
 21 24  1  0  0  0  0
 24 25  2  0  0  0  0
 25 26  1  0  0  0  0
 19 26  2  0  0  0  0
M  END
> <InChI>
InChI=1S/C20H22O6/c1-23-17-6-4-12(8-18(17)24-2)20-14-10-25-19(13(14)9-26-20)11-3-5-15(21)16(22)7-11/h3-8,13-14,19-22H,9-10H2,1-2H3/t13-,14-,19+,20-/m0/s1

> <InChIKey>
DJGIRFSHDONNME-LHHVKLHASA-N

> <SMILES>
O1[C@@H]([C@@H]2[C@@H]([C@@H](OC2)C3=CC(OC)=C(OC)C=C3)C1)C=4C=C(O)C(O)=CC4

> <Synonyms>


> <PUBCHEM_CID>


> <Molecular_formula>
C20H22O6

> <Major_Isotope_Mass>
358.14163842399995

> <ALogP>
2.133200000000001

> <Lipinski_Violations>
0

> <Insecticide_Likeness_Violations>
0

> <Post_Em_Herbicide_Likeness_Violations>
0

> <Metabolite_ID>
BTM00004

> <Reaction>
Methylenedioxy ring opening

> <Reaction_ID>
BTMR1177

> <Enzyme(s)>
CYP1A2
CYP2D6

> <Biosystem>
HUMAN

> <Precursor_ID>
TEST0071_Fargesin

> <Precursor_SMILES>
O1[C@@H]([C@@H]2[C@@H]([C@@H](OC2)C3=CC(OC)=C(OC)C=C3)C1)C=4C=C5OCOC5=CC4

> <Precursor_InChI>
InChI=1S/C21H22O6/c1-22-16-5-3-12(7-18(16)23-2)20-14-9-25-21(15(14)10-24-20)13-4-6-17-19(8-13)27-11-26-17/h3-8,14-15,20-21H,9-11H2,1-2H3/t14-,15-,20-,21+/m0/s1

> <Precursor_InChIKey>
AWOGQCSIVCQXBT-LATRNWQMSA-N

> <Precursor_ALogP>
2.436100

> <Precursor_Major_Isotope_Mass>
370.1416

$$$$
BTM00005
  CDK     08072417452D

 28 32  0  0  1  0  0  0  0  0999 V2000
   -2.3100    0.0000    0.0000 O   0  0  0  0  0  0  0  0  0  0  0  0
   -1.4300   -1.2100    0.0000 C   0  0  1  0  0  0  0  0  0  0  0  0
    0.0000   -0.7500    0.0000 C   0  0  0  0  0  0  0  0  0  0  0  0
    0.0000    0.7500    0.0000 C   0  0  1  0  0  0  0  0  0  0  0  0
    1.4300    1.2100    0.0000 C   0  0  1  0  0  0  0  0  0  0  0  0
    2.3100    0.0000    0.0000 O   0  0  0  0  0  0  0  0  0  0  0  0
    1.4300   -1.2100    0.0000 C   0  0  0  0  0  0  0  0  0  0  0  0
    1.8953    2.6360    0.0000 C   0  0  0  0  0  0  0  0  0  0  0  0
    0.8920    3.7523    0.0000 C   0  0  0  0  0  0  0  0  0  0  0  0
    1.3573    5.1783    0.0000 C   0  0  0  0  0  0  0  0  0  0  0  0
    0.3552    6.2944    0.0000 O   0  0  0  0  0  0  0  0  0  0  0  0
    0.8207    7.7203    0.0000 C   0  0  0  0  0  0  0  0  0  0  0  0
    2.8258    5.4880    0.0000 C   0  0  0  0  0  0  0  0  0  0  0  0
    3.2911    6.9141    0.0000 O   0  0  0  0  0  0  0  0  0  0  0  0
    4.7587    7.2241    0.0000 C   0  0  0  0  0  0  0  0  0  0  0  0
    3.8291    4.3718    0.0000 C   0  0  0  0  0  0  0  0  0  0  0  0
    3.3638    2.9458    0.0000 C   0  0  0  0  0  0  0  0  0  0  0  0
   -1.4300    1.2100    0.0000 C   0  0  0  0  0  0  0  0  0  0  0  0
   -1.8953   -2.6360    0.0000 C   0  0  0  0  0  0  0  0  0  0  0  0
   -3.3853   -2.9518    0.0000 C   0  0  0  0  0  0  0  0  0  0  0  0
   -3.8381   -4.3789    0.0000 C   0  0  0  0  0  0  0  0  0  0  0  0
   -5.1963   -5.0063    0.0000 O   0  0  0  0  0  0  0  0  0  0  0  0
   -4.9676   -6.5341    0.0000 C   0  0  0  0  0  0  0  0  0  0  0  0
   -3.5713   -6.7727    0.0000 O   0  0  0  0  0  0  0  0  0  0  0  0
   -2.8231   -5.5103    0.0000 C   0  0  0  0  0  0  0  0  0  0  0  0
   -1.3553   -5.2146    0.0000 C   0  0  0  0  0  0  0  0  0  0  0  0
   -0.8803   -3.7674    0.0000 C   0  0  0  0  0  0  0  0  0  0  0  0
   -0.0000   -2.2500    0.0000 O   0  0  0  0  0  0  0  0  0  0  0  0
  1  2  1  0  0  0  0
  2  3  1  0  0  0  0
  3  4  1  0  0  0  0
  4  5  1  0  0  0  0
  5  6  1  0  0  0  0
  6  7  1  0  0  0  0
  3  7  1  0  0  0  0
  5  8  1  6  0  0  0
  8  9  2  0  0  0  0
  9 10  1  0  0  0  0
 10 11  1  0  0  0  0
 11 12  1  0  0  0  0
 10 13  2  0  0  0  0
 13 14  1  0  0  0  0
 14 15  1  0  0  0  0
 13 16  1  0  0  0  0
 16 17  2  0  0  0  0
  8 17  1  0  0  0  0
  4 18  1  6  0  0  0
  1 18  1  0  0  0  0
  2 19  1  1  0  0  0
 19 20  1  0  0  0  0
 20 21  2  0  0  0  0
 21 22  1  0  0  0  0
 22 23  1  0  0  0  0
 23 24  1  0  0  0  0
 24 25  1  0  0  0  0
 21 25  1  0  0  0  0
 25 26  2  0  0  0  0
 26 27  1  0  0  0  0
 19 27  2  0  0  0  0
 28  3  1  0  0  0  0
M  END
> <InChI>
InChI=1S/C21H22O7/c1-23-15-5-3-12(7-17(15)24-2)19-14-9-25-20(21(14,22)10-26-19)13-4-6-16-18(8-13)28-11-27-16/h3-8,14,19-20,22H,9-11H2,1-2H3/t14-,19+,20-,21?/m1/s1

> <InChIKey>
YFHJWCNCXXVKBC-WSNLOOFRSA-N

> <SMILES>
O1[C@@H](C2([C@@H]([C@@H](OC2)C3=CC(OC)=C(OC)C=C3)C1)O)C=4C=C5OCOC5=CC4

> <Synonyms>


> <PUBCHEM_CID>


> <Molecular_formula>
C21H22O7

> <Major_Isotope_Mass>
386.136553044

> <ALogP>
1.9183999999999994

> <Lipinski_Violations>
0

> <Insecticide_Likeness_Violations>
0

> <Post_Em_Herbicide_Likeness_Violations>
0

> <Metabolite_ID>
BTM00005

> <Reaction>
Hydroxylation of alicyclic tertiary carbon

> <Reaction_ID>
BTMR1243

> <Enzyme(s)>
CYP1A2

> <Biosystem>
HUMAN

> <Precursor_ID>
TEST0071_Fargesin

> <Precursor_SMILES>
O1[C@@H]([C@@H]2[C@@H]([C@@H](OC2)C3=CC(OC)=C(OC)C=C3)C1)C=4C=C5OCOC5=CC4

> <Precursor_InChI>
InChI=1S/C21H22O6/c1-22-16-5-3-12(7-18(16)23-2)20-14-9-25-21(15(14)10-24-20)13-4-6-17-19(8-13)27-11-26-17/h3-8,14-15,20-21H,9-11H2,1-2H3/t14-,15-,20-,21+/m0/s1

> <Precursor_InChIKey>
AWOGQCSIVCQXBT-LATRNWQMSA-N

> <Precursor_ALogP>
2.436100

> <Precursor_Major_Isotope_Mass>
370.1416

$$$$
BTM00006
  CDK     08072417452D

 28 32  0  0  1  0  0  0  0  0999 V2000
   -2.3100    0.0000    0.0000 O   0  0  0  0  0  0  0  0  0  0  0  0
   -1.4300   -1.2100    0.0000 C   0  0  1  0  0  0  0  0  0  0  0  0
    0.0000   -0.7500    0.0000 C   0  0  2  0  0  0  0  0  0  0  0  0
    0.0000    0.7500    0.0000 C   0  0  0  0  0  0  0  0  0  0  0  0
    1.4300    1.2100    0.0000 C   0  0  1  0  0  0  0  0  0  0  0  0
    2.3100    0.0000    0.0000 O   0  0  0  0  0  0  0  0  0  0  0  0
    1.4300   -1.2100    0.0000 C   0  0  0  0  0  0  0  0  0  0  0  0
    1.8953    2.6360    0.0000 C   0  0  0  0  0  0  0  0  0  0  0  0
    0.8920    3.7523    0.0000 C   0  0  0  0  0  0  0  0  0  0  0  0
    1.3573    5.1783    0.0000 C   0  0  0  0  0  0  0  0  0  0  0  0
    0.3552    6.2944    0.0000 O   0  0  0  0  0  0  0  0  0  0  0  0
    0.8207    7.7203    0.0000 C   0  0  0  0  0  0  0  0  0  0  0  0
    2.8258    5.4880    0.0000 C   0  0  0  0  0  0  0  0  0  0  0  0
    3.2911    6.9141    0.0000 O   0  0  0  0  0  0  0  0  0  0  0  0
    4.7587    7.2241    0.0000 C   0  0  0  0  0  0  0  0  0  0  0  0
    3.8291    4.3718    0.0000 C   0  0  0  0  0  0  0  0  0  0  0  0
    3.3638    2.9458    0.0000 C   0  0  0  0  0  0  0  0  0  0  0  0
   -1.4300    1.2100    0.0000 C   0  0  0  0  0  0  0  0  0  0  0  0
   -1.8953   -2.6360    0.0000 C   0  0  0  0  0  0  0  0  0  0  0  0
   -3.3853   -2.9518    0.0000 C   0  0  0  0  0  0  0  0  0  0  0  0
   -3.8381   -4.3789    0.0000 C   0  0  0  0  0  0  0  0  0  0  0  0
   -5.1963   -5.0063    0.0000 O   0  0  0  0  0  0  0  0  0  0  0  0
   -4.9676   -6.5341    0.0000 C   0  0  0  0  0  0  0  0  0  0  0  0
   -3.5713   -6.7727    0.0000 O   0  0  0  0  0  0  0  0  0  0  0  0
   -2.8231   -5.5103    0.0000 C   0  0  0  0  0  0  0  0  0  0  0  0
   -1.3553   -5.2146    0.0000 C   0  0  0  0  0  0  0  0  0  0  0  0
   -0.8803   -3.7674    0.0000 C   0  0  0  0  0  0  0  0  0  0  0  0
    0.0000    2.2500    0.0000 O   0  0  0  0  0  0  0  0  0  0  0  0
  1  2  1  0  0  0  0
  2  3  1  0  0  0  0
  3  4  1  0  0  0  0
  4  5  1  0  0  0  0
  5  6  1  0  0  0  0
  6  7  1  0  0  0  0
  3  7  1  6  0  0  0
  5  8  1  6  0  0  0
  8  9  2  0  0  0  0
  9 10  1  0  0  0  0
 10 11  1  0  0  0  0
 11 12  1  0  0  0  0
 10 13  2  0  0  0  0
 13 14  1  0  0  0  0
 14 15  1  0  0  0  0
 13 16  1  0  0  0  0
 16 17  2  0  0  0  0
  8 17  1  0  0  0  0
  4 18  1  0  0  0  0
  1 18  1  0  0  0  0
  2 19  1  1  0  0  0
 19 20  1  0  0  0  0
 20 21  2  0  0  0  0
 21 22  1  0  0  0  0
 22 23  1  0  0  0  0
 23 24  1  0  0  0  0
 24 25  1  0  0  0  0
 21 25  1  0  0  0  0
 25 26  2  0  0  0  0
 26 27  1  0  0  0  0
 19 27  2  0  0  0  0
 28  4  1  0  0  0  0
M  END
> <InChI>
InChI=1S/C21H22O7/c1-23-15-5-4-13(8-17(15)24-2)20-21(22)10-26-19(14(21)9-25-20)12-3-6-16-18(7-12)28-11-27-16/h3-8,14,19-20,22H,9-11H2,1-2H3/t14-,19-,20+,21?/m1/s1

> <InChIKey>
URBWVGHMZRYOHL-MMCLWGKMSA-N

> <SMILES>
O1[C@@H]([C@@H]2C([C@@H](OC2)C3=CC(OC)=C(OC)C=C3)(C1)O)C=4C=C5OCOC5=CC4

> <Synonyms>


> <PUBCHEM_CID>


> <Molecular_formula>
C21H22O7

> <Major_Isotope_Mass>
386.136553044

> <ALogP>
1.9183999999999994

> <Lipinski_Violations>
0

> <Insecticide_Likeness_Violations>
0

> <Post_Em_Herbicide_Likeness_Violations>
0

> <Metabolite_ID>
BTM00006

> <Reaction>
Hydroxylation of alicyclic tertiary carbon

> <Reaction_ID>
BTMR1243

> <Enzyme(s)>
CYP1A2

> <Biosystem>
HUMAN

> <Precursor_ID>
TEST0071_Fargesin

> <Precursor_SMILES>
O1[C@@H]([C@@H]2[C@@H]([C@@H](OC2)C3=CC(OC)=C(OC)C=C3)C1)C=4C=C5OCOC5=CC4

> <Precursor_InChI>
InChI=1S/C21H22O6/c1-22-16-5-3-12(7-18(16)23-2)20-14-9-25-21(15(14)10-24-20)13-4-6-17-19(8-13)27-11-26-17/h3-8,14-15,20-21H,9-11H2,1-2H3/t14-,15-,20-,21+/m0/s1

> <Precursor_InChIKey>
AWOGQCSIVCQXBT-LATRNWQMSA-N

> <Precursor_ALogP>
2.436100

> <Precursor_Major_Isotope_Mass>
370.1416

$$$$
