BTM00001
  CDK     08072416502D

 30 33  0  0  0  0  0  0  0  0999 V2000
   -8.8050   -7.5025    0.0000 S   0  0  0  0  0  0  0  0  0  0  0  0
   -8.8050   -9.0025    0.0000 O   0  0  0  0  0  0  0  0  0  0  0  0
   -7.3050   -7.5025    0.0000 O   0  0  0  0  0  0  0  0  0  0  0  0
  -10.3050   -7.5025    0.0000 N   0  0  0  0  0  0  0  0  0  0  0  0
   -8.8050   -6.0025    0.0000 C   0  0  0  0  0  0  0  0  0  0  0  0
  -10.1046   -5.2519    0.0000 C   0  0  0  0  0  0  0  0  0  0  0  0
  -10.1053   -3.7510    0.0000 C   0  0  0  0  0  0  0  0  0  0  0  0
   -8.8064   -3.0008    0.0000 C   0  0  0  0  0  0  0  0  0  0  0  0
   -7.5068   -3.7515    0.0000 C   0  0  0  0  0  0  0  0  0  0  0  0
   -6.2078   -3.0012    0.0000 N   0  0  0  0  0  0  0  0  0  0  0  0
   -6.2081   -1.5012    0.0000 C   0  0  0  0  0  0  0  0  0  0  0  0
   -4.9086   -0.7504    0.0000 N   0  0  0  0  0  0  0  0  0  0  0  0
   -4.9081    0.7504    0.0000 C   0  0  0  0  0  0  0  0  0  0  0  0
   -3.6089    1.5002    0.0000 N   0  0  0  0  0  0  0  0  0  0  0  0
   -2.3100    0.7500    0.0000 C   0  0  0  0  0  0  0  0  0  0  0  0
   -1.0100    1.5000    0.0000 C   0  0  0  0  0  0  0  0  0  0  0  0
    0.2900    0.7500    0.0000 C   0  0  0  0  0  0  0  0  0  0  0  0
    1.7200    1.2100    0.0000 N   0  0  0  0  0  0  0  0  0  0  0  0
    2.6000    0.0000    0.0000 N   0  0  0  0  0  0  0  0  0  0  0  0
    1.7200   -1.2100    0.0000 C   0  0  0  0  0  0  0  0  0  0  0  0
    0.2900   -0.7500    0.0000 C   0  0  0  0  0  0  0  0  0  0  0  0
   -1.0100   -1.5000    0.0000 C   0  0  0  0  0  0  0  0  0  0  0  0
   -2.3100   -0.7500    0.0000 C   0  0  0  0  0  0  0  0  0  0  0  0
    2.1853   -2.6360    0.0000 C   0  0  0  0  0  0  0  0  0  0  0  0
    4.1000   -0.0000    0.0000 C   0  0  0  0  0  0  0  0  0  0  0  0
   -6.2071    1.5004    0.0000 C   0  0  0  0  0  0  0  0  0  0  0  0
   -7.5066    0.7496    0.0000 C   0  0  0  0  0  0  0  0  0  0  0  0
   -7.5071   -0.7512    0.0000 N   0  0  0  0  0  0  0  0  0  0  0  0
   -7.5060   -5.2523    0.0000 C   0  0  0  0  0  0  0  0  0  0  0  0
  -11.4035   -6.0021    0.0000 C   0  0  0  0  0  0  0  0  0  0  0  0
  1  2  2  0  0  0  0
  1  3  2  0  0  0  0
  1  4  1  0  0  0  0
  1  5  1  0  0  0  0
  5  6  2  0  0  0  0
  6  7  1  0  0  0  0
  7  8  2  0  0  0  0
  8  9  1  0  0  0  0
  9 10  1  0  0  0  0
 10 11  1  0  0  0  0
 11 12  1  0  0  0  0
 12 13  2  0  0  0  0
 13 14  1  0  0  0  0
 14 15  1  0  0  0  0
 15 16  2  0  0  0  0
 16 17  1  0  0  0  0
 17 18  2  0  0  0  0
 18 19  1  0  0  0  0
 19 20  1  0  0  0  0
 20 21  2  0  0  0  0
 17 21  1  0  0  0  0
 21 22  1  0  0  0  0
 22 23  2  0  0  0  0
 15 23  1  0  0  0  0
 20 24  1  0  0  0  0
 19 25  1  0  0  0  0
 13 26  1  0  0  0  0
 26 27  2  0  0  0  0
 27 28  1  0  0  0  0
 11 28  2  0  0  0  0
  9 29  2  0  0  0  0
  5 29  1  0  0  0  0
  6 30  1  0  0  0  0
M  END
> <InChI>
InChI=1S/C20H21N7O2S/c1-12-4-5-15(11-18(12)30(21,28)29)24-20-22-9-8-19(25-20)23-14-6-7-16-13(2)27(3)26-17(16)10-14/h4-11H,1-3H3,(H2,21,28,29)(H2,22,23,24,25)

> <InChIKey>
XWOGXAVHJKKNPO-UHFFFAOYSA-N

> <SMILES>
S(=O)(=O)(N)C1=C(C=CC(NC=2N=C(NC3=CC4=NN(C(=C4C=C3)C)C)C=CN2)=C1)C

> <Synonyms>


> <PUBCHEM_CID>


> <Molecular_formula>
C20H21N7O2S

> <Major_Isotope_Mass>
423.14774391200007

> <ALogP>
3.5352999999999986

> <Lipinski_Violations>
0

> <Insecticide_Likeness_Violations>
1

> <Post_Em_Herbicide_Likeness_Violations>
1

> <Metabolite_ID>
BTM00001

> <Reaction>
N-Dealkylation of mixed tertiary amine AndFromCyProduct

> <Reaction_ID>
N/A

> <Enzyme(s)>
CYP1A2
CYP2A6
CYP2B6
CYP2C8
CYP2C9
CYP2C19
CYP2D6
CYP3A4

> <Biosystem>
HUMAN

> <Precursor_ID>
TEST0026_pazopanib

> <Precursor_SMILES>
S(=O)(=O)(N)C1=C(C=CC(NC=2N=C(N(C3=CC4=NN(C(=C4C=C3)C)C)C)C=CN2)=C1)C

> <Precursor_InChI>
InChI=1S/C21H23N7O2S/c1-13-5-6-15(11-19(13)31(22,29)30)24-21-23-10-9-20(25-21)27(3)16-7-8-17-14(2)28(4)26-18(17)12-16/h5-12H,1-4H3,(H2,22,29,30)(H,23,24,25)

> <Precursor_InChIKey>
CUIHSIWYWATEQL-UHFFFAOYSA-N

> <Precursor_ALogP>
3.741200

> <Precursor_Major_Isotope_Mass>
437.1633

$$$$
BTM00002
  CDK     08072416502D

 32 35  0  0  0  0  0  0  0  0999 V2000
   -8.8075   10.5015    0.0000 S   0  0  0  0  0  0  0  0  0  0  0  0
  -10.1065   11.2515    0.0000 O   0  0  0  0  0  0  0  0  0  0  0  0
   -9.5575    9.2024    0.0000 O   0  0  0  0  0  0  0  0  0  0  0  0
   -8.0575   11.8005    0.0000 N   0  0  0  0  0  0  0  0  0  0  0  0
   -7.5084    9.7515    0.0000 C   0  0  0  0  0  0  0  0  0  0  0  0
   -6.2086   10.5017    0.0000 C   0  0  0  0  0  0  0  0  0  0  0  0
   -4.9084    9.7519    0.0000 C   0  0  0  0  0  0  0  0  0  0  0  0
   -4.9082    8.2519    0.0000 C   0  0  0  0  0  0  0  0  0  0  0  0
   -6.2081    7.5017    0.0000 C   0  0  0  0  0  0  0  0  0  0  0  0
   -6.2078    6.0017    0.0000 N   0  0  0  0  0  0  0  0  0  0  0  0
   -4.9087    5.2519    0.0000 C   0  0  0  0  0  0  0  0  0  0  0  0
   -4.9082    3.7510    0.0000 N   0  0  0  0  0  0  0  0  0  0  0  0
   -3.6087    3.0002    0.0000 C   0  0  0  0  0  0  0  0  0  0  0  0
   -3.6089    1.5002    0.0000 N   0  0  0  0  0  0  0  0  0  0  0  0
   -2.3100    0.7500    0.0000 C   0  0  0  0  0  0  0  0  0  0  0  0
   -1.0100    1.5000    0.0000 C   0  0  0  0  0  0  0  0  0  0  0  0
    0.2900    0.7500    0.0000 C   0  0  0  0  0  0  0  0  0  0  0  0
    1.7200    1.2100    0.0000 N   0  0  0  0  0  0  0  0  0  0  0  0
    2.6000    0.0000    0.0000 N   0  0  0  0  0  0  0  0  0  0  0  0
    1.7200   -1.2100    0.0000 C   0  0  0  0  0  0  0  0  0  0  0  0
    0.2900   -0.7500    0.0000 C   0  0  0  0  0  0  0  0  0  0  0  0
   -1.0100   -1.5000    0.0000 C   0  0  0  0  0  0  0  0  0  0  0  0
   -2.3100   -0.7500    0.0000 C   0  0  0  0  0  0  0  0  0  0  0  0
    2.1853   -2.6360    0.0000 C   0  0  0  0  0  0  0  0  0  0  0  0
    4.1000   -0.0000    0.0000 C   0  0  0  0  0  0  0  0  0  0  0  0
   -4.9081    0.7504    0.0000 C   0  0  0  0  0  0  0  0  0  0  0  0
   -2.3096    3.7502    0.0000 C   0  0  0  0  0  0  0  0  0  0  0  0
   -2.3101    5.2510    0.0000 C   0  0  0  0  0  0  0  0  0  0  0  0
   -3.6096    6.0019    0.0000 N   0  0  0  0  0  0  0  0  0  0  0  0
   -7.5082    8.2515    0.0000 C   0  0  0  0  0  0  0  0  0  0  0  0
   -6.2088   12.0017    0.0000 C   0  0  0  0  0  0  0  0  0  0  0  0
   -3.6089   -1.5002    0.0000 O   0  0  0  0  0  0  0  0  0  0  0  0
  1  2  2  0  0  0  0
  1  3  2  0  0  0  0
  1  4  1  0  0  0  0
  1  5  1  0  0  0  0
  5  6  2  0  0  0  0
  6  7  1  0  0  0  0
  7  8  2  0  0  0  0
  8  9  1  0  0  0  0
  9 10  1  0  0  0  0
 10 11  1  0  0  0  0
 11 12  1  0  0  0  0
 12 13  2  0  0  0  0
 13 14  1  0  0  0  0
 14 15  1  0  0  0  0
 15 16  2  0  0  0  0
 16 17  1  0  0  0  0
 17 18  2  0  0  0  0
 18 19  1  0  0  0  0
 19 20  1  0  0  0  0
 20 21  2  0  0  0  0
 17 21  1  0  0  0  0
 21 22  1  0  0  0  0
 22 23  2  0  0  0  0
 15 23  1  0  0  0  0
 20 24  1  0  0  0  0
 19 25  1  0  0  0  0
 14 26  1  0  0  0  0
 13 27  1  0  0  0  0
 27 28  2  0  0  0  0
 28 29  1  0  0  0  0
 11 29  2  0  0  0  0
  9 30  2  0  0  0  0
  5 30  1  0  0  0  0
  6 31  1  0  0  0  0
 32 23  1  0  0  0  0
M  END
> <InChI>
InChI=1S/C21H23N7O3S/c1-12-5-6-14(9-19(12)32(22,30)31)24-21-23-8-7-20(25-21)27(3)17-11-16-15(10-18(17)29)13(2)28(4)26-16/h5-11,29H,1-4H3,(H2,22,30,31)(H,23,24,25)

> <InChIKey>
XQSSKAFMLJCQFA-UHFFFAOYSA-N

> <SMILES>
S(=O)(=O)(N)C1=C(C=CC(NC=2N=C(N(C3=CC4=NN(C(=C4C=C3O)C)C)C)C=CN2)=C1)C

> <Synonyms>


> <PUBCHEM_CID>


> <Molecular_formula>
C21H23N7O3S

> <Major_Isotope_Mass>
453.158308596

> <ALogP>
3.473799999999999

> <Lipinski_Violations>
0

> <Insecticide_Likeness_Violations>
1

> <Post_Em_Herbicide_Likeness_Violations>
1

> <Metabolite_ID>
BTM00002

> <Reaction>
Aromatic hydroxylation of fused benzene ring

> <Reaction_ID>
BTMR1030

> <Enzyme(s)>
CYP1A2
CYP2A6
CYP2B6
CYP2C8
CYP2C9
CYP2C19
CYP2D6
CYP2E1
CYP3A4

> <Biosystem>
HUMAN

> <Precursor_ID>
TEST0026_pazopanib

> <Precursor_SMILES>
S(=O)(=O)(N)C1=C(C=CC(NC=2N=C(N(C3=CC4=NN(C(=C4C=C3)C)C)C)C=CN2)=C1)C

> <Precursor_InChI>
InChI=1S/C21H23N7O2S/c1-13-5-6-15(11-19(13)31(22,29)30)24-21-23-10-9-20(25-21)27(3)16-7-8-17-14(2)28(4)26-18(17)12-16/h5-12H,1-4H3,(H2,22,29,30)(H,23,24,25)

> <Precursor_InChIKey>
CUIHSIWYWATEQL-UHFFFAOYSA-N

> <Precursor_ALogP>
3.741200

> <Precursor_Major_Isotope_Mass>
437.1633

$$$$
BTM00003
  CDK     08072416502D

 32 35  0  0  0  0  0  0  0  0999 V2000
   -8.8075   10.5015    0.0000 S   0  0  0  0  0  0  0  0  0  0  0  0
  -10.1065   11.2515    0.0000 O   0  0  0  0  0  0  0  0  0  0  0  0
   -9.5575    9.2024    0.0000 O   0  0  0  0  0  0  0  0  0  0  0  0
   -8.0575   11.8005    0.0000 N   0  0  0  0  0  0  0  0  0  0  0  0
   -7.5084    9.7515    0.0000 C   0  0  0  0  0  0  0  0  0  0  0  0
   -6.2086   10.5017    0.0000 C   0  0  0  0  0  0  0  0  0  0  0  0
   -4.9084    9.7519    0.0000 C   0  0  0  0  0  0  0  0  0  0  0  0
   -4.9082    8.2519    0.0000 C   0  0  0  0  0  0  0  0  0  0  0  0
   -6.2081    7.5017    0.0000 C   0  0  0  0  0  0  0  0  0  0  0  0
   -6.2078    6.0017    0.0000 N   0  0  0  0  0  0  0  0  0  0  0  0
   -4.9087    5.2519    0.0000 C   0  0  0  0  0  0  0  0  0  0  0  0
   -4.9082    3.7510    0.0000 N   0  0  0  0  0  0  0  0  0  0  0  0
   -3.6087    3.0002    0.0000 C   0  0  0  0  0  0  0  0  0  0  0  0
   -3.6089    1.5002    0.0000 N   0  0  0  0  0  0  0  0  0  0  0  0
   -2.3100    0.7500    0.0000 C   0  0  0  0  0  0  0  0  0  0  0  0
   -1.0100    1.5000    0.0000 C   0  0  0  0  0  0  0  0  0  0  0  0
    0.2900    0.7500    0.0000 C   0  0  0  0  0  0  0  0  0  0  0  0
    1.7200    1.2100    0.0000 N   0  0  0  0  0  0  0  0  0  0  0  0
    2.6000    0.0000    0.0000 N   0  0  0  0  0  0  0  0  0  0  0  0
    1.7200   -1.2100    0.0000 C   0  0  0  0  0  0  0  0  0  0  0  0
    0.2900   -0.7500    0.0000 C   0  0  0  0  0  0  0  0  0  0  0  0
   -1.0100   -1.5000    0.0000 C   0  0  0  0  0  0  0  0  0  0  0  0
   -2.3100   -0.7500    0.0000 C   0  0  0  0  0  0  0  0  0  0  0  0
    2.1853   -2.6360    0.0000 C   0  0  0  0  0  0  0  0  0  0  0  0
    4.1000   -0.0000    0.0000 C   0  0  0  0  0  0  0  0  0  0  0  0
   -4.9081    0.7504    0.0000 C   0  0  0  0  0  0  0  0  0  0  0  0
   -2.3096    3.7502    0.0000 C   0  0  0  0  0  0  0  0  0  0  0  0
   -2.3101    5.2510    0.0000 C   0  0  0  0  0  0  0  0  0  0  0  0
   -3.6096    6.0019    0.0000 N   0  0  0  0  0  0  0  0  0  0  0  0
   -7.5082    8.2515    0.0000 C   0  0  0  0  0  0  0  0  0  0  0  0
   -6.2088   12.0017    0.0000 C   0  0  0  0  0  0  0  0  0  0  0  0
   -7.5080   12.7515    0.0000 O   0  0  0  0  0  0  0  0  0  0  0  0
  1  2  2  0  0  0  0
  1  3  2  0  0  0  0
  1  4  1  0  0  0  0
  1  5  1  0  0  0  0
  5  6  2  0  0  0  0
  6  7  1  0  0  0  0
  7  8  2  0  0  0  0
  8  9  1  0  0  0  0
  9 10  1  0  0  0  0
 10 11  1  0  0  0  0
 11 12  1  0  0  0  0
 12 13  2  0  0  0  0
 13 14  1  0  0  0  0
 14 15  1  0  0  0  0
 15 16  2  0  0  0  0
 16 17  1  0  0  0  0
 17 18  2  0  0  0  0
 18 19  1  0  0  0  0
 19 20  1  0  0  0  0
 20 21  2  0  0  0  0
 17 21  1  0  0  0  0
 21 22  1  0  0  0  0
 22 23  2  0  0  0  0
 15 23  1  0  0  0  0
 20 24  1  0  0  0  0
 19 25  1  0  0  0  0
 14 26  1  0  0  0  0
 13 27  1  0  0  0  0
 27 28  2  0  0  0  0
 28 29  1  0  0  0  0
 11 29  2  0  0  0  0
  9 30  2  0  0  0  0
  5 30  1  0  0  0  0
  6 31  1  0  0  0  0
 32 31  1  0  0  0  0
M  END
> <InChI>
InChI=1S/C21H23N7O3S/c1-13-17-7-6-16(11-18(17)26-28(13)3)27(2)20-8-9-23-21(25-20)24-15-5-4-14(12-29)19(10-15)32(22,30)31/h4-11,29H,12H2,1-3H3,(H2,22,30,31)(H,23,24,25)

> <InChIKey>
FHOXOPMJIMHUOC-UHFFFAOYSA-N

> <SMILES>
S(=O)(=O)(N)C1=C(C=CC(NC=2N=C(N(C3=CC4=NN(C(=C4C=C3)C)C)C)C=CN2)=C1)CO

> <Synonyms>


> <PUBCHEM_CID>


> <Molecular_formula>
C21H23N7O3S

> <Major_Isotope_Mass>
453.15830859600004

> <ALogP>
2.6504999999999974

> <Lipinski_Violations>
0

> <Insecticide_Likeness_Violations>
1

> <Post_Em_Herbicide_Likeness_Violations>
1

> <Metabolite_ID>
BTM00003

> <Reaction>
Aliphatic hydroxylation of methyl carbon adjacent to aromatic ring AndFromCyProduct

> <Reaction_ID>
N/A

> <Enzyme(s)>
CYP1A2
CYP2A6
CYP2B6
CYP2C8
CYP2C9
CYP2C19
CYP2D6
CYP2E1
CYP3A4

> <Biosystem>
HUMAN

> <Precursor_ID>
TEST0026_pazopanib

> <Precursor_SMILES>
S(=O)(=O)(N)C1=C(C=CC(NC=2N=C(N(C3=CC4=NN(C(=C4C=C3)C)C)C)C=CN2)=C1)C

> <Precursor_InChI>
InChI=1S/C21H23N7O2S/c1-13-5-6-15(11-19(13)31(22,29)30)24-21-23-10-9-20(25-21)27(3)16-7-8-17-14(2)28(4)26-18(17)12-16/h5-12H,1-4H3,(H2,22,29,30)(H,23,24,25)

> <Precursor_InChIKey>
CUIHSIWYWATEQL-UHFFFAOYSA-N

> <Precursor_ALogP>
3.741200

> <Precursor_Major_Isotope_Mass>
437.1633

$$$$
BTM00004
  CDK     08072416502D

 32 35  0  0  0  0  0  0  0  0999 V2000
   -8.8075   10.5015    0.0000 S   0  0  0  0  0  0  0  0  0  0  0  0
  -10.1065   11.2515    0.0000 O   0  0  0  0  0  0  0  0  0  0  0  0
   -9.5575    9.2024    0.0000 O   0  0  0  0  0  0  0  0  0  0  0  0
   -8.0575   11.8005    0.0000 N   0  0  0  0  0  0  0  0  0  0  0  0
   -7.5084    9.7515    0.0000 C   0  0  0  0  0  0  0  0  0  0  0  0
   -6.2086   10.5017    0.0000 C   0  0  0  0  0  0  0  0  0  0  0  0
   -4.9084    9.7519    0.0000 C   0  0  0  0  0  0  0  0  0  0  0  0
   -4.9082    8.2519    0.0000 C   0  0  0  0  0  0  0  0  0  0  0  0
   -6.2081    7.5017    0.0000 C   0  0  0  0  0  0  0  0  0  0  0  0
   -6.2078    6.0017    0.0000 N   0  0  0  0  0  0  0  0  0  0  0  0
   -4.9087    5.2519    0.0000 C   0  0  0  0  0  0  0  0  0  0  0  0
   -4.9082    3.7510    0.0000 N   0  0  0  0  0  0  0  0  0  0  0  0
   -3.6087    3.0002    0.0000 C   0  0  0  0  0  0  0  0  0  0  0  0
   -3.6089    1.5002    0.0000 N   0  0  0  0  0  0  0  0  0  0  0  0
   -2.3100    0.7500    0.0000 C   0  0  0  0  0  0  0  0  0  0  0  0
   -1.0100    1.5000    0.0000 C   0  0  0  0  0  0  0  0  0  0  0  0
    0.2900    0.7500    0.0000 C   0  0  0  0  0  0  0  0  0  0  0  0
    1.7200    1.2100    0.0000 N   0  0  0  0  0  0  0  0  0  0  0  0
    2.6000    0.0000    0.0000 N   0  0  0  0  0  0  0  0  0  0  0  0
    1.7200   -1.2100    0.0000 C   0  0  0  0  0  0  0  0  0  0  0  0
    0.2900   -0.7500    0.0000 C   0  0  0  0  0  0  0  0  0  0  0  0
   -1.0100   -1.5000    0.0000 C   0  0  0  0  0  0  0  0  0  0  0  0
   -2.3100   -0.7500    0.0000 C   0  0  0  0  0  0  0  0  0  0  0  0
    2.1853   -2.6360    0.0000 C   0  0  0  0  0  0  0  0  0  0  0  0
    4.1000   -0.0000    0.0000 C   0  0  0  0  0  0  0  0  0  0  0  0
   -4.9081    0.7504    0.0000 C   0  0  0  0  0  0  0  0  0  0  0  0
   -2.3096    3.7502    0.0000 C   0  0  0  0  0  0  0  0  0  0  0  0
   -2.3101    5.2510    0.0000 C   0  0  0  0  0  0  0  0  0  0  0  0
   -3.6096    6.0019    0.0000 N   0  0  0  0  0  0  0  0  0  0  0  0
   -7.5082    8.2515    0.0000 C   0  0  0  0  0  0  0  0  0  0  0  0
   -6.2088   12.0017    0.0000 C   0  0  0  0  0  0  0  0  0  0  0  0
    3.6529   -2.9461    0.0000 O   0  0  0  0  0  0  0  0  0  0  0  0
  1  2  2  0  0  0  0
  1  3  2  0  0  0  0
  1  4  1  0  0  0  0
  1  5  1  0  0  0  0
  5  6  2  0  0  0  0
  6  7  1  0  0  0  0
  7  8  2  0  0  0  0
  8  9  1  0  0  0  0
  9 10  1  0  0  0  0
 10 11  1  0  0  0  0
 11 12  1  0  0  0  0
 12 13  2  0  0  0  0
 13 14  1  0  0  0  0
 14 15  1  0  0  0  0
 15 16  2  0  0  0  0
 16 17  1  0  0  0  0
 17 18  2  0  0  0  0
 18 19  1  0  0  0  0
 19 20  1  0  0  0  0
 20 21  2  0  0  0  0
 17 21  1  0  0  0  0
 21 22  1  0  0  0  0
 22 23  2  0  0  0  0
 15 23  1  0  0  0  0
 20 24  1  0  0  0  0
 19 25  1  0  0  0  0
 14 26  1  0  0  0  0
 13 27  1  0  0  0  0
 27 28  2  0  0  0  0
 28 29  1  0  0  0  0
 11 29  2  0  0  0  0
  9 30  2  0  0  0  0
  5 30  1  0  0  0  0
  6 31  1  0  0  0  0
 32 24  1  0  0  0  0
M  END
> <InChI>
InChI=1S/C21H23N7O3S/c1-13-4-5-14(10-19(13)32(22,30)31)24-21-23-9-8-20(25-21)27(2)15-6-7-16-17(11-15)26-28(3)18(16)12-29/h4-11,29H,12H2,1-3H3,(H2,22,30,31)(H,23,24,25)

> <InChIKey>
KRXYEFGZHAJXHW-UHFFFAOYSA-N

> <SMILES>
S(=O)(=O)(N)C1=C(C=CC(NC=2N=C(N(C3=CC4=NN(C(=C4C=C3)CO)C)C)C=CN2)=C1)C

> <Synonyms>


> <PUBCHEM_CID>


> <Molecular_formula>
C21H23N7O3S

> <Major_Isotope_Mass>
453.158308596

> <ALogP>
3.2825999999999995

> <Lipinski_Violations>
0

> <Insecticide_Likeness_Violations>
1

> <Post_Em_Herbicide_Likeness_Violations>
1

> <Metabolite_ID>
BTM00004

> <Reaction>
Aliphatic hydroxylation of methyl carbon adjacent to aromatic ring AndFromCyProduct

> <Reaction_ID>
N/A

> <Enzyme(s)>
CYP1A2
CYP2A6
CYP2B6
CYP2C8
CYP2C9
CYP2C19
CYP2D6
CYP2E1
CYP3A4

> <Biosystem>
HUMAN

> <Precursor_ID>
TEST0026_pazopanib

> <Precursor_SMILES>
S(=O)(=O)(N)C1=C(C=CC(NC=2N=C(N(C3=CC4=NN(C(=C4C=C3)C)C)C)C=CN2)=C1)C

> <Precursor_InChI>
InChI=1S/C21H23N7O2S/c1-13-5-6-15(11-19(13)31(22,29)30)24-21-23-10-9-20(25-21)27(3)16-7-8-17-14(2)28(4)26-18(17)12-16/h5-12H,1-4H3,(H2,22,29,30)(H,23,24,25)

> <Precursor_InChIKey>
CUIHSIWYWATEQL-UHFFFAOYSA-N

> <Precursor_ALogP>
3.741200

> <Precursor_Major_Isotope_Mass>
437.1633

$$$$
BTM00005
  CDK     08072416502D

 32 35  0  0  0  0  0  0  0  0999 V2000
   -8.8075   10.5015    0.0000 S   0  0  0  0  0  0  0  0  0  0  0  0
  -10.1065   11.2515    0.0000 O   0  0  0  0  0  0  0  0  0  0  0  0
   -9.5575    9.2024    0.0000 O   0  0  0  0  0  0  0  0  0  0  0  0
   -8.0575   11.8005    0.0000 N   0  0  0  0  0  0  0  0  0  0  0  0
   -7.5084    9.7515    0.0000 C   0  0  0  0  0  0  0  0  0  0  0  0
   -6.2086   10.5017    0.0000 C   0  0  0  0  0  0  0  0  0  0  0  0
   -4.9084    9.7519    0.0000 C   0  0  0  0  0  0  0  0  0  0  0  0
   -4.9082    8.2519    0.0000 C   0  0  0  0  0  0  0  0  0  0  0  0
   -6.2081    7.5017    0.0000 C   0  0  0  0  0  0  0  0  0  0  0  0
   -6.2078    6.0017    0.0000 N   0  0  0  0  0  0  0  0  0  0  0  0
   -4.9087    5.2519    0.0000 C   0  0  0  0  0  0  0  0  0  0  0  0
   -4.9082    3.7510    0.0000 N   0  0  0  0  0  0  0  0  0  0  0  0
   -3.6087    3.0002    0.0000 C   0  0  0  0  0  0  0  0  0  0  0  0
   -3.6089    1.5002    0.0000 N   0  0  0  0  0  0  0  0  0  0  0  0
   -2.3100    0.7500    0.0000 C   0  0  0  0  0  0  0  0  0  0  0  0
   -1.0100    1.5000    0.0000 C   0  0  0  0  0  0  0  0  0  0  0  0
    0.2900    0.7500    0.0000 C   0  0  0  0  0  0  0  0  0  0  0  0
    1.7200    1.2100    0.0000 N   0  0  0  0  0  0  0  0  0  0  0  0
    2.6000    0.0000    0.0000 N   0  0  0  0  0  0  0  0  0  0  0  0
    1.7200   -1.2100    0.0000 C   0  0  0  0  0  0  0  0  0  0  0  0
    0.2900   -0.7500    0.0000 C   0  0  0  0  0  0  0  0  0  0  0  0
   -1.0100   -1.5000    0.0000 C   0  0  0  0  0  0  0  0  0  0  0  0
   -2.3100   -0.7500    0.0000 C   0  0  0  0  0  0  0  0  0  0  0  0
    2.1853   -2.6360    0.0000 C   0  0  0  0  0  0  0  0  0  0  0  0
    4.1000   -0.0000    0.0000 C   0  0  0  0  0  0  0  0  0  0  0  0
   -4.9081    0.7504    0.0000 C   0  0  0  0  0  0  0  0  0  0  0  0
   -2.3096    3.7502    0.0000 C   0  0  0  0  0  0  0  0  0  0  0  0
   -2.3101    5.2510    0.0000 C   0  0  0  0  0  0  0  0  0  0  0  0
   -3.6096    6.0019    0.0000 N   0  0  0  0  0  0  0  0  0  0  0  0
   -7.5082    8.2515    0.0000 C   0  0  0  0  0  0  0  0  0  0  0  0
   -6.2088   12.0017    0.0000 C   0  0  0  0  0  0  0  0  0  0  0  0
   -1.0100   -3.0000    0.0000 O   0  0  0  0  0  0  0  0  0  0  0  0
  1  2  2  0  0  0  0
  1  3  2  0  0  0  0
  1  4  1  0  0  0  0
  1  5  1  0  0  0  0
  5  6  2  0  0  0  0
  6  7  1  0  0  0  0
  7  8  2  0  0  0  0
  8  9  1  0  0  0  0
  9 10  1  0  0  0  0
 10 11  1  0  0  0  0
 11 12  1  0  0  0  0
 12 13  2  0  0  0  0
 13 14  1  0  0  0  0
 14 15  1  0  0  0  0
 15 16  2  0  0  0  0
 16 17  1  0  0  0  0
 17 18  2  0  0  0  0
 18 19  1  0  0  0  0
 19 20  1  0  0  0  0
 20 21  2  0  0  0  0
 17 21  1  0  0  0  0
 21 22  1  0  0  0  0
 22 23  2  0  0  0  0
 15 23  1  0  0  0  0
 20 24  1  0  0  0  0
 19 25  1  0  0  0  0
 14 26  1  0  0  0  0
 13 27  1  0  0  0  0
 27 28  2  0  0  0  0
 28 29  1  0  0  0  0
 11 29  2  0  0  0  0
  9 30  2  0  0  0  0
  5 30  1  0  0  0  0
  6 31  1  0  0  0  0
 22 32  1  0  0  0  0
M  END
> <InChI>
InChI=1S/C21H23N7O3S/c1-12-5-6-14(9-18(12)32(22,30)31)24-21-23-8-7-19(25-21)27(3)15-10-16-20(17(29)11-15)13(2)28(4)26-16/h5-11,29H,1-4H3,(H2,22,30,31)(H,23,24,25)

> <InChIKey>
QESDZKYEIIPBIE-UHFFFAOYSA-N

> <SMILES>
S(=O)(=O)(N)C1=C(C=CC(NC=2N=C(N(C3=CC4=NN(C(=C4C(=C3)O)C)C)C)C=CN2)=C1)C

> <Synonyms>


> <PUBCHEM_CID>


> <Molecular_formula>
C21H23N7O3S

> <Major_Isotope_Mass>
453.158308596

> <ALogP>
3.473799999999999

> <Lipinski_Violations>
0

> <Insecticide_Likeness_Violations>
1

> <Post_Em_Herbicide_Likeness_Violations>
1

> <Metabolite_ID>
BTM00005

> <Reaction>
Aromatic hydroxylation of fused benzene ring

> <Reaction_ID>
BTMR1032

> <Enzyme(s)>
CYP1A2
CYP2B6
CYP2C8
CYP2C9
CYP2C19
CYP2D6
CYP3A4

> <Biosystem>
HUMAN

> <Precursor_ID>
TEST0026_pazopanib

> <Precursor_SMILES>
S(=O)(=O)(N)C1=C(C=CC(NC=2N=C(N(C3=CC4=NN(C(=C4C=C3)C)C)C)C=CN2)=C1)C

> <Precursor_InChI>
InChI=1S/C21H23N7O2S/c1-13-5-6-15(11-19(13)31(22,29)30)24-21-23-10-9-20(25-21)27(3)16-7-8-17-14(2)28(4)26-18(17)12-16/h5-12H,1-4H3,(H2,22,29,30)(H,23,24,25)

> <Precursor_InChIKey>
CUIHSIWYWATEQL-UHFFFAOYSA-N

> <Precursor_ALogP>
3.741200

> <Precursor_Major_Isotope_Mass>
437.1633

$$$$
BTM00006
  CDK     08072416502D

 32 35  0  0  0  0  0  0  0  0999 V2000
   -8.8075   10.5015    0.0000 S   0  0  0  0  0  0  0  0  0  0  0  0
  -10.1065   11.2515    0.0000 O   0  0  0  0  0  0  0  0  0  0  0  0
   -9.5575    9.2024    0.0000 O   0  0  0  0  0  0  0  0  0  0  0  0
   -8.0575   11.8005    0.0000 N   0  0  0  0  0  0  0  0  0  0  0  0
   -7.5084    9.7515    0.0000 C   0  0  0  0  0  0  0  0  0  0  0  0
   -6.2086   10.5017    0.0000 C   0  0  0  0  0  0  0  0  0  0  0  0
   -4.9084    9.7519    0.0000 C   0  0  0  0  0  0  0  0  0  0  0  0
   -4.9082    8.2519    0.0000 C   0  0  0  0  0  0  0  0  0  0  0  0
   -6.2081    7.5017    0.0000 C   0  0  0  0  0  0  0  0  0  0  0  0
   -6.2078    6.0017    0.0000 N   0  0  0  0  0  0  0  0  0  0  0  0
   -4.9087    5.2519    0.0000 C   0  0  0  0  0  0  0  0  0  0  0  0
   -4.9082    3.7510    0.0000 N   0  0  0  0  0  0  0  0  0  0  0  0
   -3.6087    3.0002    0.0000 C   0  0  0  0  0  0  0  0  0  0  0  0
   -3.6089    1.5002    0.0000 N   0  0  0  0  0  0  0  0  0  0  0  0
   -2.3100    0.7500    0.0000 C   0  0  0  0  0  0  0  0  0  0  0  0
   -1.0100    1.5000    0.0000 C   0  0  0  0  0  0  0  0  0  0  0  0
    0.2900    0.7500    0.0000 C   0  0  0  0  0  0  0  0  0  0  0  0
    1.7200    1.2100    0.0000 N   0  0  0  0  0  0  0  0  0  0  0  0
    2.6000    0.0000    0.0000 N   0  0  0  0  0  0  0  0  0  0  0  0
    1.7200   -1.2100    0.0000 C   0  0  0  0  0  0  0  0  0  0  0  0
    0.2900   -0.7500    0.0000 C   0  0  0  0  0  0  0  0  0  0  0  0
   -1.0100   -1.5000    0.0000 C   0  0  0  0  0  0  0  0  0  0  0  0
   -2.3100   -0.7500    0.0000 C   0  0  0  0  0  0  0  0  0  0  0  0
    2.1853   -2.6360    0.0000 C   0  0  0  0  0  0  0  0  0  0  0  0
    4.1000   -0.0000    0.0000 C   0  0  0  0  0  0  0  0  0  0  0  0
   -4.9081    0.7504    0.0000 C   0  0  0  0  0  0  0  0  0  0  0  0
   -2.3096    3.7502    0.0000 C   0  0  0  0  0  0  0  0  0  0  0  0
   -2.3101    5.2510    0.0000 C   0  0  0  0  0  0  0  0  0  0  0  0
   -3.6096    6.0019    0.0000 N   0  3  0  0  0  0  0  0  0  0  0  0
   -7.5082    8.2515    0.0000 C   0  0  0  0  0  0  0  0  0  0  0  0
   -6.2088   12.0017    0.0000 C   0  0  0  0  0  0  0  0  0  0  0  0
   -3.6094    7.5019    0.0000 O   0  5  0  0  0  0  0  0  0  0  0  0
  1  2  2  0  0  0  0
  1  3  2  0  0  0  0
  1  4  1  0  0  0  0
  1  5  1  0  0  0  0
  5  6  2  0  0  0  0
  6  7  1  0  0  0  0
  7  8  2  0  0  0  0
  8  9  1  0  0  0  0
  9 10  1  0  0  0  0
 10 11  1  0  0  0  0
 11 12  1  0  0  0  0
 12 13  2  0  0  0  0
 13 14  1  0  0  0  0
 14 15  1  0  0  0  0
 15 16  2  0  0  0  0
 16 17  1  0  0  0  0
 17 18  2  0  0  0  0
 18 19  1  0  0  0  0
 19 20  1  0  0  0  0
 20 21  2  0  0  0  0
 17 21  1  0  0  0  0
 21 22  1  0  0  0  0
 22 23  2  0  0  0  0
 15 23  1  0  0  0  0
 20 24  1  0  0  0  0
 19 25  1  0  0  0  0
 14 26  1  0  0  0  0
 13 27  1  0  0  0  0
 27 28  2  0  0  0  0
 28 29  1  0  0  0  0
 11 29  2  0  0  0  0
  9 30  2  0  0  0  0
  5 30  1  0  0  0  0
  6 31  1  0  0  0  0
 32 29  1  0  0  0  0
M  CHG  1  29   1
M  CHG  1  32  -1
M  END
> <InChI>
InChI=1S/C21H23N7O3S/c1-13-5-6-15(11-19(13)32(22,30)31)23-21-24-20(9-10-28(21)29)26(3)16-7-8-17-14(2)27(4)25-18(17)12-16/h5-12H,1-4H3,(H,23,24)(H2,22,30,31)

> <InChIKey>
WXPZDZOPMHWHLN-UHFFFAOYSA-N

> <SMILES>
S(=O)(=O)(N)C1=C(C=CC(NC=2N=C(N(C3=CC4=NN(C(=C4C=C3)C)C)C)C=C[N+]2[O-])=C1)C

> <Synonyms>


> <PUBCHEM_CID>


> <Molecular_formula>
C21H23N7O3S

> <Major_Isotope_Mass>
453.158308596

> <ALogP>
3.5117000000000016

> <Lipinski_Violations>
0

> <Insecticide_Likeness_Violations>
0

> <Post_Em_Herbicide_Likeness_Violations>
0

> <Metabolite_ID>
BTM00006

> <Reaction>
N-Oxidation of pyrimidine

> <Reaction_ID>
BTMR1115

> <Enzyme(s)>
CYP2C9
CYP2C19
CYP3A4

> <Biosystem>
HUMAN

> <Precursor_ID>
TEST0026_pazopanib

> <Precursor_SMILES>
S(=O)(=O)(N)C1=C(C=CC(NC=2N=C(N(C3=CC4=NN(C(=C4C=C3)C)C)C)C=CN2)=C1)C

> <Precursor_InChI>
InChI=1S/C21H23N7O2S/c1-13-5-6-15(11-19(13)31(22,29)30)24-21-23-10-9-20(25-21)27(3)16-7-8-17-14(2)28(4)26-18(17)12-16/h5-12H,1-4H3,(H2,22,29,30)(H,23,24,25)

> <Precursor_InChIKey>
CUIHSIWYWATEQL-UHFFFAOYSA-N

> <Precursor_ALogP>
3.741200

> <Precursor_Major_Isotope_Mass>
437.1633

$$$$
BTM00007
  CDK     08072416502D

 30 33  0  0  0  0  0  0  0  0999 V2000
   -8.8075   10.5015    0.0000 S   0  0  0  0  0  0  0  0  0  0  0  0
  -10.1065   11.2515    0.0000 O   0  0  0  0  0  0  0  0  0  0  0  0
   -9.5575    9.2024    0.0000 O   0  0  0  0  0  0  0  0  0  0  0  0
   -8.0575   11.8005    0.0000 N   0  0  0  0  0  0  0  0  0  0  0  0
   -7.5084    9.7515    0.0000 C   0  0  0  0  0  0  0  0  0  0  0  0
   -6.2086   10.5017    0.0000 C   0  0  0  0  0  0  0  0  0  0  0  0
   -4.9084    9.7519    0.0000 C   0  0  0  0  0  0  0  0  0  0  0  0
   -4.9082    8.2519    0.0000 C   0  0  0  0  0  0  0  0  0  0  0  0
   -6.2081    7.5017    0.0000 C   0  0  0  0  0  0  0  0  0  0  0  0
   -6.2078    6.0017    0.0000 N   0  0  0  0  0  0  0  0  0  0  0  0
   -4.9087    5.2519    0.0000 C   0  0  0  0  0  0  0  0  0  0  0  0
   -4.9082    3.7510    0.0000 N   0  0  0  0  0  0  0  0  0  0  0  0
   -3.6087    3.0002    0.0000 C   0  0  0  0  0  0  0  0  0  0  0  0
   -3.6089    1.5002    0.0000 N   0  0  0  0  0  0  0  0  0  0  0  0
   -2.3100    0.7500    0.0000 C   0  0  0  0  0  0  0  0  0  0  0  0
   -1.0100    1.5000    0.0000 C   0  0  0  0  0  0  0  0  0  0  0  0
    0.2900    0.7500    0.0000 C   0  0  0  0  0  0  0  0  0  0  0  0
    1.7200    1.2100    0.0000 N   0  0  0  0  0  0  0  0  0  0  0  0
    2.6000    0.0000    0.0000 N   0  0  0  0  0  0  0  0  0  0  0  0
    1.7200   -1.2100    0.0000 C   0  0  0  0  0  0  0  0  0  0  0  0
    0.2900   -0.7500    0.0000 C   0  0  0  0  0  0  0  0  0  0  0  0
   -1.0100   -1.5000    0.0000 C   0  0  0  0  0  0  0  0  0  0  0  0
   -2.3100   -0.7500    0.0000 C   0  0  0  0  0  0  0  0  0  0  0  0
    2.1853   -2.6360    0.0000 C   0  0  0  0  0  0  0  0  0  0  0  0
   -4.9081    0.7504    0.0000 C   0  0  0  0  0  0  0  0  0  0  0  0
   -2.3096    3.7502    0.0000 C   0  0  0  0  0  0  0  0  0  0  0  0
   -2.3101    5.2510    0.0000 C   0  0  0  0  0  0  0  0  0  0  0  0
   -3.6096    6.0019    0.0000 N   0  0  0  0  0  0  0  0  0  0  0  0
   -7.5082    8.2515    0.0000 C   0  0  0  0  0  0  0  0  0  0  0  0
   -6.2088   12.0017    0.0000 C   0  0  0  0  0  0  0  0  0  0  0  0
  1  2  2  0  0  0  0
  1  3  2  0  0  0  0
  1  4  1  0  0  0  0
  1  5  1  0  0  0  0
  5  6  2  0  0  0  0
  6  7  1  0  0  0  0
  7  8  2  0  0  0  0
  8  9  1  0  0  0  0
  9 10  1  0  0  0  0
 10 11  1  0  0  0  0
 11 12  1  0  0  0  0
 12 13  2  0  0  0  0
 13 14  1  0  0  0  0
 14 15  1  0  0  0  0
 15 16  2  0  0  0  0
 16 17  1  0  0  0  0
 17 18  2  0  0  0  0
 18 19  1  0  0  0  0
 19 20  1  0  0  0  0
 20 21  2  0  0  0  0
 17 21  1  0  0  0  0
 21 22  1  0  0  0  0
 22 23  2  0  0  0  0
 15 23  1  0  0  0  0
 20 24  1  0  0  0  0
 14 25  1  0  0  0  0
 13 26  1  0  0  0  0
 26 27  2  0  0  0  0
 27 28  1  0  0  0  0
 11 28  2  0  0  0  0
  9 29  2  0  0  0  0
  5 29  1  0  0  0  0
  6 30  1  0  0  0  0
M  END
> <InChI>
InChI=1S/C20H21N7O2S/c1-12-4-5-14(10-18(12)30(21,28)29)23-20-22-9-8-19(24-20)27(3)15-6-7-16-13(2)25-26-17(16)11-15/h4-11H,1-3H3,(H,25,26)(H2,21,28,29)(H,22,23,24)

> <InChIKey>
BRBRXNGJZMGEHY-UHFFFAOYSA-N

> <SMILES>
S(=O)(=O)(N)C1=C(C=CC(NC=2N=C(N(C3=CC4=NNC(=C4C=C3)C)C)C=CN2)=C1)C

> <Synonyms>


> <PUBCHEM_CID>


> <Molecular_formula>
C20H21N7O2S

> <Major_Isotope_Mass>
423.147743912

> <ALogP>
3.5352999999999986

> <Lipinski_Violations>
0

> <Insecticide_Likeness_Violations>
1

> <Post_Em_Herbicide_Likeness_Violations>
1

> <Metabolite_ID>
BTM00007

> <Reaction>
N-Dealkylation from CyProduct

> <Reaction_ID>
BTMR1332

> <Enzyme(s)>
CYP2C8
CYP2D6
CYP3A4

> <Biosystem>
HUMAN

> <Precursor_ID>
TEST0026_pazopanib

> <Precursor_SMILES>
S(=O)(=O)(N)C1=C(C=CC(NC=2N=C(N(C3=CC4=NN(C(=C4C=C3)C)C)C)C=CN2)=C1)C

> <Precursor_InChI>
InChI=1S/C21H23N7O2S/c1-13-5-6-15(11-19(13)31(22,29)30)24-21-23-10-9-20(25-21)27(3)16-7-8-17-14(2)28(4)26-18(17)12-16/h5-12H,1-4H3,(H2,22,29,30)(H,23,24,25)

> <Precursor_InChIKey>
CUIHSIWYWATEQL-UHFFFAOYSA-N

> <Precursor_ALogP>
3.741200

> <Precursor_Major_Isotope_Mass>
437.1633

$$$$
BTM00008
  CDK     08072416502D

 32 35  0  0  0  0  0  0  0  0999 V2000
   -8.8075   10.5015    0.0000 S   0  0  0  0  0  0  0  0  0  0  0  0
  -10.1065   11.2515    0.0000 O   0  0  0  0  0  0  0  0  0  0  0  0
   -9.5575    9.2024    0.0000 O   0  0  0  0  0  0  0  0  0  0  0  0
   -8.0575   11.8005    0.0000 N   0  0  0  0  0  0  0  0  0  0  0  0
   -7.5084    9.7515    0.0000 C   0  0  0  0  0  0  0  0  0  0  0  0
   -6.2086   10.5017    0.0000 C   0  0  0  0  0  0  0  0  0  0  0  0
   -4.9084    9.7519    0.0000 C   0  0  0  0  0  0  0  0  0  0  0  0
   -4.9082    8.2519    0.0000 C   0  0  0  0  0  0  0  0  0  0  0  0
   -6.2081    7.5017    0.0000 C   0  0  0  0  0  0  0  0  0  0  0  0
   -7.5082    8.2515    0.0000 C   0  0  0  0  0  0  0  0  0  0  0  0
   -6.2078    6.0017    0.0000 N   0  3  0  0  0  0  0  0  0  0  0  0
   -4.9087    5.2519    0.0000 C   0  0  0  0  0  0  0  0  0  0  0  0
   -4.9082    3.7510    0.0000 N   0  0  0  0  0  0  0  0  0  0  0  0
   -3.6087    3.0002    0.0000 C   0  0  0  0  0  0  0  0  0  0  0  0
   -3.6089    1.5002    0.0000 N   0  0  0  0  0  0  0  0  0  0  0  0
   -2.3100    0.7500    0.0000 C   0  0  0  0  0  0  0  0  0  0  0  0
   -1.0100    1.5000    0.0000 C   0  0  0  0  0  0  0  0  0  0  0  0
    0.2900    0.7500    0.0000 C   0  0  0  0  0  0  0  0  0  0  0  0
    1.7200    1.2100    0.0000 N   0  0  0  0  0  0  0  0  0  0  0  0
    2.6000    0.0000    0.0000 N   0  0  0  0  0  0  0  0  0  0  0  0
    1.7200   -1.2100    0.0000 C   0  0  0  0  0  0  0  0  0  0  0  0
    0.2900   -0.7500    0.0000 C   0  0  0  0  0  0  0  0  0  0  0  0
   -1.0100   -1.5000    0.0000 C   0  0  0  0  0  0  0  0  0  0  0  0
   -2.3100   -0.7500    0.0000 C   0  0  0  0  0  0  0  0  0  0  0  0
    2.1853   -2.6360    0.0000 C   0  0  0  0  0  0  0  0  0  0  0  0
    4.1000   -0.0000    0.0000 C   0  0  0  0  0  0  0  0  0  0  0  0
   -4.9081    0.7504    0.0000 C   0  0  0  0  0  0  0  0  0  0  0  0
   -2.3096    3.7502    0.0000 C   0  0  0  0  0  0  0  0  0  0  0  0
   -2.3101    5.2510    0.0000 C   0  0  0  0  0  0  0  0  0  0  0  0
   -3.6096    6.0019    0.0000 N   0  0  0  0  0  0  0  0  0  0  0  0
   -7.5068    5.2515    0.0000 O   0  5  0  0  0  0  0  0  0  0  0  0
   -6.2088   12.0017    0.0000 C   0  0  0  0  0  0  0  0  0  0  0  0
  1  2  2  0  0  0  0
  1  3  2  0  0  0  0
  1  4  1  0  0  0  0
  1  5  1  0  0  0  0
  5  6  2  0  0  0  0
  6  7  1  0  0  0  0
  7  8  2  0  0  0  0
  8  9  1  0  0  0  0
  9 10  2  0  0  0  0
  5 10  1  0  0  0  0
  9 11  1  0  0  0  0
 11 12  1  0  0  0  0
 12 13  1  0  0  0  0
 13 14  2  0  0  0  0
 14 15  1  0  0  0  0
 15 16  1  0  0  0  0
 16 17  2  0  0  0  0
 17 18  1  0  0  0  0
 18 19  2  0  0  0  0
 19 20  1  0  0  0  0
 20 21  1  0  0  0  0
 21 22  2  0  0  0  0
 18 22  1  0  0  0  0
 22 23  1  0  0  0  0
 23 24  2  0  0  0  0
 16 24  1  0  0  0  0
 21 25  1  0  0  0  0
 20 26  1  0  0  0  0
 15 27  1  0  0  0  0
 14 28  1  0  0  0  0
 28 29  2  0  0  0  0
 29 30  1  0  0  0  0
 12 30  2  0  0  0  0
 11 31  1  0  0  0  0
  6 32  1  0  0  0  0
M  CHG  1  11   1
M  CHG  1  31  -1
M  END
> <InChI>
InChI=1S/C21H23N7O3S/c1-13-5-6-16(12-19(13)32(22,30)31)28(29)21-23-10-9-20(24-21)26(3)15-7-8-17-14(2)27(4)25-18(17)11-15/h5-12,28H,1-4H3,(H2,22,30,31)

> <InChIKey>
OHMJAYIUGOGGEG-UHFFFAOYSA-N

> <SMILES>
S(=O)(=O)(N)C1=C(C=CC(=C1)[NH+](C=2N=C(N(C3=CC4=NN(C(=C4C=C3)C)C)C)C=CN2)[O-])C

> <Synonyms>


> <PUBCHEM_CID>


> <Molecular_formula>
C21H23N7O3S

> <Major_Isotope_Mass>
453.158308596

> <ALogP>
3.223400000000002

> <Lipinski_Violations>
0

> <Insecticide_Likeness_Violations>
0

> <Post_Em_Herbicide_Likeness_Violations>
0

> <Metabolite_ID>
BTM00008

> <Reaction>
SNP-Oxidation from CyProduct

> <Reaction_ID>
BTMR1329

> <Enzyme(s)>
CYP2C19

> <Biosystem>
HUMAN

> <Precursor_ID>
TEST0026_pazopanib

> <Precursor_SMILES>
S(=O)(=O)(N)C1=C(C=CC(NC=2N=C(N(C3=CC4=NN(C(=C4C=C3)C)C)C)C=CN2)=C1)C

> <Precursor_InChI>
InChI=1S/C21H23N7O2S/c1-13-5-6-15(11-19(13)31(22,29)30)24-21-23-10-9-20(25-21)27(3)16-7-8-17-14(2)28(4)26-18(17)12-16/h5-12H,1-4H3,(H2,22,29,30)(H,23,24,25)

> <Precursor_InChIKey>
CUIHSIWYWATEQL-UHFFFAOYSA-N

> <Precursor_ALogP>
3.741200

> <Precursor_Major_Isotope_Mass>
437.1633

$$$$
