BTM00001
  CDK     08072416512D

 20 22  0  0  1  0  0  0  0  0999 V2000
    3.3629    2.9461    0.0000 O   0  0  0  0  0  0  0  0  0  0  0  0
    1.8953    2.6360    0.0000 C   0  0  0  0  0  0  0  0  0  0  0  0
    0.8930    3.7520    0.0000 O   0  0  0  0  0  0  0  0  0  0  0  0
    1.4300    1.2100    0.0000 C   0  0  2  0  0  0  0  0  0  0  0  0
    2.3100    0.0000    0.0000 C   0  0  0  0  0  0  0  0  0  0  0  0
    1.4300   -1.2100    0.0000 C   0  0  0  0  0  0  0  0  0  0  0  0
    0.0000   -0.7500    0.0000 N   0  0  0  0  0  0  0  0  0  0  0  0
    0.0000    0.7500    0.0000 C   0  0  0  0  0  0  0  0  0  0  0  0
   -1.4300    1.2100    0.0000 C   0  0  0  0  0  0  0  0  0  0  0  0
   -2.3100    0.0000    0.0000 C   0  0  0  0  0  0  0  0  0  0  0  0
   -1.4300   -1.2100    0.0000 C   0  0  0  0  0  0  0  0  0  0  0  0
   -1.8953   -2.6360    0.0000 C   0  0  0  0  0  0  0  0  0  0  0  0
   -0.8930   -3.7520    0.0000 O   0  0  0  0  0  0  0  0  0  0  0  0
   -3.3629   -2.9461    0.0000 C   0  0  0  0  0  0  0  0  0  0  0  0
   -3.8284   -4.3720    0.0000 C   0  0  0  0  0  0  0  0  0  0  0  0
   -5.2970   -4.6816    0.0000 C   0  0  0  0  0  0  0  0  0  0  0  0
   -6.3000   -3.5651    0.0000 C   0  0  0  0  0  0  0  0  0  0  0  0
   -5.8345   -2.1392    0.0000 C   0  0  0  0  0  0  0  0  0  0  0  0
   -4.3659   -1.8297    0.0000 C   0  0  0  0  0  0  0  0  0  0  0  0
   -2.8264   -5.4883    0.0000 O   0  0  0  0  0  0  0  0  0  0  0  0
  1  2  1  0  0  0  0
  2  3  2  0  0  0  0
  4  2  1  6  0  0  0
  4  5  1  0  0  0  0
  5  6  1  0  0  0  0
  6  7  1  0  0  0  0
  7  8  1  0  0  0  0
  4  8  1  0  0  0  0
  8  9  2  0  0  0  0
  9 10  1  0  0  0  0
 10 11  2  0  0  0  0
  7 11  1  0  0  0  0
 11 12  1  0  0  0  0
 12 13  2  0  0  0  0
 12 14  1  0  0  0  0
 14 15  2  0  0  0  0
 15 16  1  0  0  0  0
 16 17  2  0  0  0  0
 17 18  1  0  0  0  0
 18 19  2  0  0  0  0
 14 19  1  0  0  0  0
 20 15  1  0  0  0  0
M  END
> <InChI>
InChI=1S/C15H13NO4/c17-13-4-2-1-3-10(13)14(18)12-6-5-11-9(15(19)20)7-8-16(11)12/h1-6,9,17H,7-8H2,(H,19,20)/t9-/m1/s1

> <InChIKey>
YVIFKVMWPOECQQ-SECBINFHSA-N

> <SMILES>
OC(=O)[C@@H]1CCN2C1=CC=C2C(=O)C3=C(C=CC=C3)O

> <Synonyms>


> <PUBCHEM_CID>


> <Molecular_formula>
C15H13NO4

> <Major_Isotope_Mass>
271.084457896

> <ALogP>
2.539399999999999

> <Lipinski_Violations>
0

> <Insecticide_Likeness_Violations>
0

> <Post_Em_Herbicide_Likeness_Violations>
0

> <Metabolite_ID>
BTM00001

> <Reaction>
O-Hydroxylation of monosubstituted benzene

> <Reaction_ID>
BTMR1034

> <Enzyme(s)>
CYP1A2
CYP2C8
CYP2C9
CYP2C19
CYP3A4

> <Biosystem>
HUMAN

> <Precursor_ID>
TEST0031_Ketorolac

> <Precursor_SMILES>
OC(=O)[C@@H]1CCN2C1=CC=C2C(=O)C3=CC=CC=C3

> <Precursor_InChI>
InChI=1S/C15H13NO3/c17-14(10-4-2-1-3-5-10)13-7-6-12-11(15(18)19)8-9-16(12)13/h1-7,11H,8-9H2,(H,18,19)/t11-/m1/s1

> <Precursor_InChIKey>
OZWKMVRBQXNZKK-LLVKDONJSA-N

> <Precursor_ALogP>
2.806799

> <Precursor_Major_Isotope_Mass>
255.0895

$$$$
BTM00002
  CDK     08072416512D

 20 22  0  0  1  0  0  0  0  0999 V2000
    3.3629    2.9461    0.0000 O   0  0  0  0  0  0  0  0  0  0  0  0
    1.8953    2.6360    0.0000 C   0  0  0  0  0  0  0  0  0  0  0  0
    0.8930    3.7520    0.0000 O   0  0  0  0  0  0  0  0  0  0  0  0
    1.4300    1.2100    0.0000 C   0  0  2  0  0  0  0  0  0  0  0  0
    2.3100    0.0000    0.0000 C   0  0  0  0  0  0  0  0  0  0  0  0
    1.4300   -1.2100    0.0000 C   0  0  0  0  0  0  0  0  0  0  0  0
    0.0000   -0.7500    0.0000 N   0  0  0  0  0  0  0  0  0  0  0  0
    0.0000    0.7500    0.0000 C   0  0  0  0  0  0  0  0  0  0  0  0
   -1.4300    1.2100    0.0000 C   0  0  0  0  0  0  0  0  0  0  0  0
   -2.3100    0.0000    0.0000 C   0  0  0  0  0  0  0  0  0  0  0  0
   -1.4300   -1.2100    0.0000 C   0  0  0  0  0  0  0  0  0  0  0  0
   -1.8953   -2.6360    0.0000 C   0  0  0  0  0  0  0  0  0  0  0  0
   -0.8930   -3.7520    0.0000 O   0  0  0  0  0  0  0  0  0  0  0  0
   -3.3629   -2.9461    0.0000 C   0  0  0  0  0  0  0  0  0  0  0  0
   -3.8211   -4.3744    0.0000 C   0  0  0  0  0  0  0  0  0  0  0  0
   -5.2595   -4.7005    0.0000 C   0  0  0  0  0  0  0  0  0  0  0  0
   -6.3159   -3.5740    0.0000 C   0  0  0  0  0  0  0  0  0  0  0  0
   -5.8576   -2.1457    0.0000 C   0  0  0  0  0  0  0  0  0  0  0  0
   -4.3430   -1.8439    0.0000 C   0  0  0  0  0  0  0  0  0  0  0  0
   -7.7793   -3.9033    0.0000 O   0  0  0  0  0  0  0  0  0  0  0  0
  1  2  1  0  0  0  0
  2  3  2  0  0  0  0
  4  2  1  6  0  0  0
  4  5  1  0  0  0  0
  5  6  1  0  0  0  0
  6  7  1  0  0  0  0
  7  8  1  0  0  0  0
  4  8  1  0  0  0  0
  8  9  2  0  0  0  0
  9 10  1  0  0  0  0
 10 11  2  0  0  0  0
  7 11  1  0  0  0  0
 11 12  1  0  0  0  0
 12 13  2  0  0  0  0
 12 14  1  0  0  0  0
 14 15  2  0  0  0  0
 15 16  1  0  0  0  0
 16 17  2  0  0  0  0
 17 18  1  0  0  0  0
 18 19  2  0  0  0  0
 14 19  1  0  0  0  0
 20 17  1  0  0  0  0
M  END
> <InChI>
InChI=1S/C15H13NO4/c17-10-3-1-9(2-4-10)14(18)13-6-5-12-11(15(19)20)7-8-16(12)13/h1-6,11,17H,7-8H2,(H,19,20)/t11-/m1/s1

> <InChIKey>
PIQMOWBWPFGZMW-LLVKDONJSA-N

> <SMILES>
OC(=O)[C@@H]1CCN2C1=CC=C2C(=O)C3=CC=C(C=C3)O

> <Synonyms>


> <PUBCHEM_CID>


> <Molecular_formula>
C15H13NO4

> <Major_Isotope_Mass>
271.084457896

> <ALogP>
2.539399999999999

> <Lipinski_Violations>
0

> <Insecticide_Likeness_Violations>
0

> <Post_Em_Herbicide_Likeness_Violations>
0

> <Metabolite_ID>
BTM00002

> <Reaction>
Hydroxylation of benzene on carbon para to electron donating group

> <Reaction_ID>
BTMR1047

> <Enzyme(s)>
CYP1A2
CYP2C8
CYP2C9
CYP2D6
CYP3A4

> <Biosystem>
HUMAN

> <Precursor_ID>
TEST0031_Ketorolac

> <Precursor_SMILES>
OC(=O)[C@@H]1CCN2C1=CC=C2C(=O)C3=CC=CC=C3

> <Precursor_InChI>
InChI=1S/C15H13NO3/c17-14(10-4-2-1-3-5-10)13-7-6-12-11(15(18)19)8-9-16(12)13/h1-7,11H,8-9H2,(H,18,19)/t11-/m1/s1

> <Precursor_InChIKey>
OZWKMVRBQXNZKK-LLVKDONJSA-N

> <Precursor_ALogP>
2.806799

> <Precursor_Major_Isotope_Mass>
255.0895

$$$$
BTM00003
  CDK     08072416512D

 20 22  0  0  1  0  0  0  0  0999 V2000
    3.3629    2.9461    0.0000 O   0  0  0  0  0  0  0  0  0  0  0  0
    1.8953    2.6360    0.0000 C   0  0  0  0  0  0  0  0  0  0  0  0
    0.8930    3.7520    0.0000 O   0  0  0  0  0  0  0  0  0  0  0  0
    1.4300    1.2100    0.0000 C   0  0  2  0  0  0  0  0  0  0  0  0
    2.3100    0.0000    0.0000 C   0  0  0  0  0  0  0  0  0  0  0  0
    1.4300   -1.2100    0.0000 C   0  0  0  0  0  0  0  0  0  0  0  0
    0.0000   -0.7500    0.0000 N   0  0  0  0  0  0  0  0  0  0  0  0
    0.0000    0.7500    0.0000 C   0  0  0  0  0  0  0  0  0  0  0  0
   -1.4300    1.2100    0.0000 C   0  0  0  0  0  0  0  0  0  0  0  0
   -2.3100    0.0000    0.0000 C   0  0  0  0  0  0  0  0  0  0  0  0
   -1.4300   -1.2100    0.0000 C   0  0  0  0  0  0  0  0  0  0  0  0
   -1.8953   -2.6360    0.0000 C   0  0  0  0  0  0  0  0  0  0  0  0
   -0.8930   -3.7520    0.0000 O   0  0  0  0  0  0  0  0  0  0  0  0
   -3.3629   -2.9461    0.0000 C   0  0  0  0  0  0  0  0  0  0  0  0
   -3.8280   -4.3730    0.0000 C   0  0  0  0  0  0  0  0  0  0  0  0
   -5.2956   -4.6831    0.0000 C   0  0  0  0  0  0  0  0  0  0  0  0
   -6.2981   -3.5662    0.0000 C   0  0  0  0  0  0  0  0  0  0  0  0
   -5.8330   -2.1393    0.0000 C   0  0  0  0  0  0  0  0  0  0  0  0
   -4.3654   -1.8292    0.0000 C   0  0  0  0  0  0  0  0  0  0  0  0
    1.8953   -2.6360    0.0000 O   0  0  0  0  0  0  0  0  0  0  0  0
  1  2  1  0  0  0  0
  2  3  2  0  0  0  0
  4  2  1  6  0  0  0
  4  5  1  0  0  0  0
  5  6  1  0  0  0  0
  6  7  1  0  0  0  0
  7  8  1  0  0  0  0
  4  8  1  0  0  0  0
  8  9  2  0  0  0  0
  9 10  1  0  0  0  0
 10 11  2  0  0  0  0
  7 11  1  0  0  0  0
 11 12  1  0  0  0  0
 12 13  2  0  0  0  0
 12 14  1  0  0  0  0
 14 15  2  0  0  0  0
 15 16  1  0  0  0  0
 16 17  2  0  0  0  0
 17 18  1  0  0  0  0
 18 19  2  0  0  0  0
 14 19  1  0  0  0  0
 20  6  1  0  0  0  0
M  END
> <InChI>
InChI=1S/C15H13NO4/c17-13-8-10(15(19)20)11-6-7-12(16(11)13)14(18)9-4-2-1-3-5-9/h1-7,10,13,17H,8H2,(H,19,20)/t10-,13?/m1/s1

> <InChIKey>
BWXDZOXUWXATFW-VUUHIHSGSA-N

> <SMILES>
OC(=O)[C@@H]1CC(N2C1=CC=C2C(=O)C3=CC=CC=C3)O

> <Synonyms>


> <PUBCHEM_CID>


> <Molecular_formula>
C15H13NO4

> <Major_Isotope_Mass>
271.084457896

> <ALogP>
2.208300000000001

> <Lipinski_Violations>
0

> <Insecticide_Likeness_Violations>
0

> <Post_Em_Herbicide_Likeness_Violations>
0

> <Metabolite_ID>
BTM00003

> <Reaction>
Hydroxylation of heteroalicyclic secondary carbon

> <Reaction_ID>
BTMR1070

> <Enzyme(s)>
CYP1A2
CYP2A6
CYP2C9
CYP2D6
CYP3A4

> <Biosystem>
HUMAN

> <Precursor_ID>
TEST0031_Ketorolac

> <Precursor_SMILES>
OC(=O)[C@@H]1CCN2C1=CC=C2C(=O)C3=CC=CC=C3

> <Precursor_InChI>
InChI=1S/C15H13NO3/c17-14(10-4-2-1-3-5-10)13-7-6-12-11(15(18)19)8-9-16(12)13/h1-7,11H,8-9H2,(H,18,19)/t11-/m1/s1

> <Precursor_InChIKey>
OZWKMVRBQXNZKK-LLVKDONJSA-N

> <Precursor_ALogP>
2.806799

> <Precursor_Major_Isotope_Mass>
255.0895

$$$$
BTM00004
  CDK     08072416512D

 20 22  0  0  1  0  0  0  0  0999 V2000
    3.3629    2.9461    0.0000 O   0  0  0  0  0  0  0  0  0  0  0  0
    1.8953    2.6360    0.0000 C   0  0  0  0  0  0  0  0  0  0  0  0
    0.8930    3.7520    0.0000 O   0  0  0  0  0  0  0  0  0  0  0  0
    1.4300    1.2100    0.0000 C   0  0  2  0  0  0  0  0  0  0  0  0
    2.3100    0.0000    0.0000 C   0  0  0  0  0  0  0  0  0  0  0  0
    1.4300   -1.2100    0.0000 C   0  0  0  0  0  0  0  0  0  0  0  0
    0.0000   -0.7500    0.0000 N   0  0  0  0  0  0  0  0  0  0  0  0
    0.0000    0.7500    0.0000 C   0  0  0  0  0  0  0  0  0  0  0  0
   -1.4300    1.2100    0.0000 C   0  0  0  0  0  0  0  0  0  0  0  0
   -2.3100    0.0000    0.0000 C   0  0  0  0  0  0  0  0  0  0  0  0
   -1.4300   -1.2100    0.0000 C   0  0  0  0  0  0  0  0  0  0  0  0
   -1.8953   -2.6360    0.0000 C   0  0  0  0  0  0  0  0  0  0  0  0
   -0.8930   -3.7520    0.0000 O   0  0  0  0  0  0  0  0  0  0  0  0
   -3.3629   -2.9461    0.0000 C   0  0  0  0  0  0  0  0  0  0  0  0
   -3.8280   -4.3730    0.0000 C   0  0  0  0  0  0  0  0  0  0  0  0
   -5.2956   -4.6831    0.0000 C   0  0  0  0  0  0  0  0  0  0  0  0
   -6.2981   -3.5662    0.0000 C   0  0  0  0  0  0  0  0  0  0  0  0
   -5.8330   -2.1393    0.0000 C   0  0  0  0  0  0  0  0  0  0  0  0
   -4.3654   -1.8292    0.0000 C   0  0  0  0  0  0  0  0  0  0  0  0
    3.8100   -0.0000    0.0000 O   0  0  0  0  0  0  0  0  0  0  0  0
  1  2  1  0  0  0  0
  2  3  2  0  0  0  0
  4  2  1  6  0  0  0
  4  5  1  0  0  0  0
  5  6  1  0  0  0  0
  6  7  1  0  0  0  0
  7  8  1  0  0  0  0
  4  8  1  0  0  0  0
  8  9  2  0  0  0  0
  9 10  1  0  0  0  0
 10 11  2  0  0  0  0
  7 11  1  0  0  0  0
 11 12  1  0  0  0  0
 12 13  2  0  0  0  0
 12 14  1  0  0  0  0
 14 15  2  0  0  0  0
 15 16  1  0  0  0  0
 16 17  2  0  0  0  0
 17 18  1  0  0  0  0
 18 19  2  0  0  0  0
 14 19  1  0  0  0  0
 20  5  1  0  0  0  0
M  END
> <InChI>
InChI=1S/C15H13NO4/c17-12-8-16-10(13(12)15(19)20)6-7-11(16)14(18)9-4-2-1-3-5-9/h1-7,12-13,17H,8H2,(H,19,20)/t12?,13-/m0/s1

> <InChIKey>
VLJJQOBXSOPHTM-ABLWVSNPSA-N

> <SMILES>
OC(=O)[C@@H]1C(CN2C1=CC=C2C(=O)C3=CC=CC=C3)O

> <Synonyms>


> <PUBCHEM_CID>


> <Molecular_formula>
C15H13NO4

> <Major_Isotope_Mass>
271.084457896

> <ALogP>
1.9749000000000003

> <Lipinski_Violations>
0

> <Insecticide_Likeness_Violations>
0

> <Post_Em_Herbicide_Likeness_Violations>
0

> <Metabolite_ID>
BTM00004

> <Reaction>
Hydroxylation of heteroalicyclic secondary carbon

> <Reaction_ID>
BTMR1071

> <Enzyme(s)>
CYP1A2

> <Biosystem>
HUMAN

> <Precursor_ID>
TEST0031_Ketorolac

> <Precursor_SMILES>
OC(=O)[C@@H]1CCN2C1=CC=C2C(=O)C3=CC=CC=C3

> <Precursor_InChI>
InChI=1S/C15H13NO3/c17-14(10-4-2-1-3-5-10)13-7-6-12-11(15(18)19)8-9-16(12)13/h1-7,11H,8-9H2,(H,18,19)/t11-/m1/s1

> <Precursor_InChIKey>
OZWKMVRBQXNZKK-LLVKDONJSA-N

> <Precursor_ALogP>
2.806799

> <Precursor_Major_Isotope_Mass>
255.0895

$$$$
BTM00005
  CDK     08072416512D

 20 22  0  0  0  0  0  0  0  0999 V2000
    2.7305    3.4591    0.0000 O   0  0  0  0  0  0  0  0  0  0  0  0
    2.7295    1.9591    0.0000 C   0  0  0  0  0  0  0  0  0  0  0  0
    4.0281    1.2083    0.0000 O   0  0  0  0  0  0  0  0  0  0  0  0
    1.4300    1.2100    0.0000 C   0  0  0  0  0  0  0  0  0  0  0  0
    2.3100    0.0000    0.0000 C   0  0  0  0  0  0  0  0  0  0  0  0
    1.4300   -1.2100    0.0000 C   0  0  0  0  0  0  0  0  0  0  0  0
    0.0000   -0.7500    0.0000 N   0  0  0  0  0  0  0  0  0  0  0  0
    0.0000    0.7500    0.0000 C   0  0  0  0  0  0  0  0  0  0  0  0
   -1.4300    1.2100    0.0000 C   0  0  0  0  0  0  0  0  0  0  0  0
   -2.3100    0.0000    0.0000 C   0  0  0  0  0  0  0  0  0  0  0  0
   -1.4300   -1.2100    0.0000 C   0  0  0  0  0  0  0  0  0  0  0  0
   -1.8953   -2.6360    0.0000 C   0  0  0  0  0  0  0  0  0  0  0  0
   -0.8930   -3.7520    0.0000 O   0  0  0  0  0  0  0  0  0  0  0  0
   -3.3629   -2.9461    0.0000 C   0  0  0  0  0  0  0  0  0  0  0  0
   -3.8280   -4.3730    0.0000 C   0  0  0  0  0  0  0  0  0  0  0  0
   -5.2956   -4.6831    0.0000 C   0  0  0  0  0  0  0  0  0  0  0  0
   -6.2981   -3.5662    0.0000 C   0  0  0  0  0  0  0  0  0  0  0  0
   -5.8330   -2.1393    0.0000 C   0  0  0  0  0  0  0  0  0  0  0  0
   -4.3654   -1.8292    0.0000 C   0  0  0  0  0  0  0  0  0  0  0  0
    0.8224    2.5814    0.0000 O   0  0  0  0  0  0  0  0  0  0  0  0
  1  2  1  0  0  0  0
  2  3  2  0  0  0  0
  4  2  1  0  0  0  0
  4  5  1  0  0  0  0
  5  6  1  0  0  0  0
  6  7  1  0  0  0  0
  7  8  1  0  0  0  0
  4  8  1  0  0  0  0
  8  9  2  0  0  0  0
  9 10  1  0  0  0  0
 10 11  2  0  0  0  0
  7 11  1  0  0  0  0
 11 12  1  0  0  0  0
 12 13  2  0  0  0  0
 12 14  1  0  0  0  0
 14 15  2  0  0  0  0
 15 16  1  0  0  0  0
 16 17  2  0  0  0  0
 17 18  1  0  0  0  0
 18 19  2  0  0  0  0
 14 19  1  0  0  0  0
 20  4  1  0  0  0  0
M  END
> <InChI>
InChI=1S/C15H13NO4/c17-13(10-4-2-1-3-5-10)11-6-7-12-15(20,14(18)19)8-9-16(11)12/h1-7,20H,8-9H2,(H,18,19)

> <InChIKey>
PEIPYJQFMSQFBD-UHFFFAOYSA-N

> <SMILES>
OC(=O)C1(CCN2C1=CC=C2C(=O)C3=CC=CC=C3)O

> <Synonyms>


> <PUBCHEM_CID>


> <Molecular_formula>
C15H13NO4

> <Major_Isotope_Mass>
271.084457896

> <ALogP>
1.9474999999999985

> <Lipinski_Violations>
0

> <Insecticide_Likeness_Violations>
0

> <Post_Em_Herbicide_Likeness_Violations>
0

> <Metabolite_ID>
BTM00005

> <Reaction>
alpha-Hydroxylation of carbonyl group

> <Reaction_ID>
BTMR1054

> <Enzyme(s)>
CYP1A2
CYP2A6
CYP2B6
CYP2C8
CYP2C9
CYP2C19
CYP2D6
CYP3A4

> <Biosystem>
HUMAN

> <Precursor_ID>
TEST0031_Ketorolac

> <Precursor_SMILES>
OC(=O)[C@@H]1CCN2C1=CC=C2C(=O)C3=CC=CC=C3

> <Precursor_InChI>
InChI=1S/C15H13NO3/c17-14(10-4-2-1-3-5-10)13-7-6-12-11(15(18)19)8-9-16(12)13/h1-7,11H,8-9H2,(H,18,19)/t11-/m1/s1

> <Precursor_InChIKey>
OZWKMVRBQXNZKK-LLVKDONJSA-N

> <Precursor_ALogP>
2.806799

> <Precursor_Major_Isotope_Mass>
255.0895

$$$$
BTM00006
  CDK     08072416512D

 19 21  0  0  1  0  0  0  0  0999 V2000
    3.3629    2.9461    0.0000 O   0  0  0  0  0  0  0  0  0  0  0  0
    1.8953    2.6360    0.0000 C   0  0  0  0  0  0  0  0  0  0  0  0
    0.8930    3.7520    0.0000 O   0  0  0  0  0  0  0  0  0  0  0  0
    1.4300    1.2100    0.0000 C   0  0  2  0  0  0  0  0  0  0  0  0
    2.3100    0.0000    0.0000 C   0  0  0  0  0  0  0  0  0  0  0  0
    1.4300   -1.2100    0.0000 C   0  0  0  0  0  0  0  0  0  0  0  0
    0.0000   -0.7500    0.0000 N   0  0  0  0  0  0  0  0  0  0  0  0
    0.0000    0.7500    0.0000 C   0  0  0  0  0  0  0  0  0  0  0  0
   -1.4300    1.2100    0.0000 C   0  0  0  0  0  0  0  0  0  0  0  0
   -2.3100    0.0000    0.0000 C   0  0  0  0  0  0  0  0  0  0  0  0
   -1.4300   -1.2100    0.0000 C   0  0  0  0  0  0  0  0  0  0  0  0
   -1.8953   -2.6360    0.0000 C   0  0  0  0  0  0  0  0  0  0  0  0
   -0.8930   -3.7520    0.0000 O   0  0  0  0  0  0  0  0  0  0  0  0
   -3.3629   -2.9461    0.0000 C   0  0  0  0  0  0  0  0  0  0  0  0
   -3.8286   -4.3728    0.0000 C   0  0  0  0  0  0  0  0  0  0  0  0
   -5.2969   -4.6838    0.0000 C   0  0  0  0  0  0  0  0  0  0  0  0
   -6.2994   -3.5680    0.0000 C   0  0  0  0  0  0  0  0  0  0  0  0
   -5.8337   -2.1412    0.0000 C   0  0  0  0  0  0  0  0  0  0  0  0
   -4.3654   -1.8303    0.0000 C   0  0  0  0  0  0  0  0  0  0  0  0
  1  2  1  0  0  0  0
  2  3  2  0  0  0  0
  4  2  1  6  0  0  0
  4  5  1  0  0  0  0
  5  6  1  0  0  0  0
  6  7  1  0  0  0  0
  7  8  1  0  0  0  0
  4  8  1  0  0  0  0
  8  9  2  0  0  0  0
  9 10  1  0  0  0  0
 10 11  2  0  0  0  0
  7 11  1  0  0  0  0
 11 12  1  0  0  0  0
 12 13  1  0  0  0  0
 12 14  1  0  0  0  0
 14 15  2  0  0  0  0
 15 16  1  0  0  0  0
 16 17  2  0  0  0  0
 17 18  1  0  0  0  0
 18 19  2  0  0  0  0
 14 19  1  0  0  0  0
M  END
> <InChI>
InChI=1S/C15H15NO3/c17-14(10-4-2-1-3-5-10)13-7-6-12-11(15(18)19)8-9-16(12)13/h1-7,11,14,17H,8-9H2,(H,18,19)/t11-,14?/m1/s1

> <InChIKey>
RVLZPDOBDWGHQD-YNODCEANSA-N

> <SMILES>
OC(=O)[C@@H]1CCN2C1=CC=C2C(O)C3=CC=CC=C3

> <Synonyms>


> <PUBCHEM_CID>


> <Molecular_formula>
C15H15NO3

> <Major_Isotope_Mass>
257.10519333999997

> <ALogP>
2.4103000000000003

> <Lipinski_Violations>
0

> <Insecticide_Likeness_Violations>
0

> <Post_Em_Herbicide_Likeness_Violations>
0

> <Metabolite_ID>
BTM00006

> <Reaction>
Reduction of ketone to alcohol

> <Reaction_ID>
BTMR1171

> <Enzyme(s)>
CYP2C9

> <Biosystem>
HUMAN

> <Precursor_ID>
TEST0031_Ketorolac

> <Precursor_SMILES>
OC(=O)[C@@H]1CCN2C1=CC=C2C(=O)C3=CC=CC=C3

> <Precursor_InChI>
InChI=1S/C15H13NO3/c17-14(10-4-2-1-3-5-10)13-7-6-12-11(15(18)19)8-9-16(12)13/h1-7,11H,8-9H2,(H,18,19)/t11-/m1/s1

> <Precursor_InChIKey>
OZWKMVRBQXNZKK-LLVKDONJSA-N

> <Precursor_ALogP>
2.806799

> <Precursor_Major_Isotope_Mass>
255.0895

$$$$
BTM00007
  CDK     08072416512D

 20 22  0  0  0  0  0  0  0  0999 V2000
    3.3629    2.9461    0.0000 O   0  0  0  0  0  0  0  0  0  0  0  0
    1.8953    2.6360    0.0000 C   0  0  0  0  0  0  0  0  0  0  0  0
    0.8930    3.7520    0.0000 O   0  0  0  0  0  0  0  0  0  0  0  0
    1.4300    1.2100    0.0000 C   0  0  0  0  0  0  0  0  0  0  0  0
    2.3100    0.0000    0.0000 C   0  0  0  0  0  0  0  0  0  0  0  0
    1.4300   -1.2100    0.0000 C   0  0  0  0  0  0  0  0  0  0  0  0
    0.0000   -0.7500    0.0000 N   0  0  0  0  0  0  0  0  0  0  0  0
    0.0000    0.7500    0.0000 C   0  0  0  0  0  0  0  0  0  0  0  0
   -1.4300    1.2100    0.0000 C   0  0  0  0  0  0  0  0  0  0  0  0
   -2.3100    0.0000    0.0000 C   0  0  0  0  0  0  0  0  0  0  0  0
   -1.4300   -1.2100    0.0000 C   0  0  0  0  0  0  0  0  0  0  0  0
   -1.8953   -2.6360    0.0000 C   0  0  0  0  0  0  0  0  0  0  0  0
   -0.8930   -3.7520    0.0000 O   0  0  0  0  0  0  0  0  0  0  0  0
   -3.3629   -2.9461    0.0000 C   0  0  0  0  0  0  0  0  0  0  0  0
   -3.8280   -4.3730    0.0000 C   0  0  0  0  0  0  0  0  0  0  0  0
   -5.2956   -4.6831    0.0000 C   0  0  0  0  0  0  0  0  0  0  0  0
   -6.2981   -3.5662    0.0000 C   0  0  0  0  0  0  0  0  0  0  0  0
   -5.8330   -2.1393    0.0000 C   0  0  0  0  0  0  0  0  0  0  0  0
   -4.3654   -1.8292    0.0000 C   0  0  0  0  0  0  0  0  0  0  0  0
    1.8953   -2.6360    0.0000 O   0  0  0  0  0  0  0  0  0  0  0  0
  1  2  1  0  0  0  0
  2  3  2  0  0  0  0
  2  4  1  0  0  0  0
  4  5  1  0  0  0  0
  5  6  1  0  0  0  0
  6  7  1  0  0  0  0
  7  8  1  0  0  0  0
  4  8  1  0  0  0  0
  8  9  2  0  0  0  0
  9 10  1  0  0  0  0
 10 11  2  0  0  0  0
  7 11  1  0  0  0  0
 11 12  1  0  0  0  0
 12 13  2  0  0  0  0
 12 14  1  0  0  0  0
 14 15  2  0  0  0  0
 15 16  1  0  0  0  0
 16 17  2  0  0  0  0
 17 18  1  0  0  0  0
 18 19  2  0  0  0  0
 14 19  1  0  0  0  0
  6 20  1  0  0  0  0
M  END
> <InChI>
InChI=1S/C15H13NO4/c17-13-8-10(15(19)20)11-6-7-12(16(11)13)14(18)9-4-2-1-3-5-9/h1-7,10,13,17H,8H2,(H,19,20)

> <InChIKey>
BWXDZOXUWXATFW-UHFFFAOYSA-N

> <SMILES>
OC(=O)C1CC(N2C1=CC=C2C(=O)C3=CC=CC=C3)O

> <Synonyms>


> <PUBCHEM_CID>


> <Molecular_formula>
C15H13NO4

> <Major_Isotope_Mass>
271.084457896

> <ALogP>
2.208300000000001

> <Lipinski_Violations>
0

> <Insecticide_Likeness_Violations>
0

> <Post_Em_Herbicide_Likeness_Violations>
0

> <Metabolite_ID>
BTM00007

> <Reaction>
Hydroxylation from CyProduct

> <Reaction_ID>
BTMR1328

> <Enzyme(s)>
CYP3A4

> <Biosystem>
HUMAN

> <Precursor_ID>
TEST0031_Ketorolac

> <Precursor_SMILES>
OC(=O)[C@@H]1CCN2C1=CC=C2C(=O)C3=CC=CC=C3

> <Precursor_InChI>
InChI=1S/C15H13NO3/c17-14(10-4-2-1-3-5-10)13-7-6-12-11(15(18)19)8-9-16(12)13/h1-7,11H,8-9H2,(H,18,19)/t11-/m1/s1

> <Precursor_InChIKey>
OZWKMVRBQXNZKK-LLVKDONJSA-N

> <Precursor_ALogP>
2.806799

> <Precursor_Major_Isotope_Mass>
255.0895

$$$$
BTM00008
  CDK     08072416512D

 20 22  0  0  0  0  0  0  0  0999 V2000
    3.3629    2.9461    0.0000 O   0  0  0  0  0  0  0  0  0  0  0  0
    1.8953    2.6360    0.0000 C   0  0  0  0  0  0  0  0  0  0  0  0
    0.8930    3.7520    0.0000 O   0  0  0  0  0  0  0  0  0  0  0  0
    1.4300    1.2100    0.0000 C   0  0  0  0  0  0  0  0  0  0  0  0
    2.3100    0.0000    0.0000 C   0  0  0  0  0  0  0  0  0  0  0  0
    1.4300   -1.2100    0.0000 C   0  0  0  0  0  0  0  0  0  0  0  0
    0.0000   -0.7500    0.0000 N   0  0  0  0  0  0  0  0  0  0  0  0
    0.0000    0.7500    0.0000 C   0  0  0  0  0  0  0  0  0  0  0  0
   -1.4300    1.2100    0.0000 C   0  0  0  0  0  0  0  0  0  0  0  0
   -2.3100    0.0000    0.0000 C   0  0  0  0  0  0  0  0  0  0  0  0
   -1.4300   -1.2100    0.0000 C   0  0  0  0  0  0  0  0  0  0  0  0
   -1.8953   -2.6360    0.0000 C   0  0  0  0  0  0  0  0  0  0  0  0
   -0.8930   -3.7520    0.0000 O   0  0  0  0  0  0  0  0  0  0  0  0
   -3.3629   -2.9461    0.0000 C   0  0  0  0  0  0  0  0  0  0  0  0
   -3.8211   -4.3744    0.0000 C   0  0  0  0  0  0  0  0  0  0  0  0
   -5.2595   -4.7005    0.0000 C   0  0  0  0  0  0  0  0  0  0  0  0
   -6.3159   -3.5740    0.0000 C   0  0  0  0  0  0  0  0  0  0  0  0
   -5.8576   -2.1457    0.0000 C   0  0  0  0  0  0  0  0  0  0  0  0
   -4.3430   -1.8439    0.0000 C   0  0  0  0  0  0  0  0  0  0  0  0
   -7.7793   -3.9033    0.0000 O   0  0  0  0  0  0  0  0  0  0  0  0
  1  2  1  0  0  0  0
  2  3  2  0  0  0  0
  2  4  1  0  0  0  0
  4  5  1  0  0  0  0
  5  6  1  0  0  0  0
  6  7  1  0  0  0  0
  7  8  1  0  0  0  0
  4  8  1  0  0  0  0
  8  9  2  0  0  0  0
  9 10  1  0  0  0  0
 10 11  2  0  0  0  0
  7 11  1  0  0  0  0
 11 12  1  0  0  0  0
 12 13  2  0  0  0  0
 12 14  1  0  0  0  0
 14 15  2  0  0  0  0
 15 16  1  0  0  0  0
 16 17  2  0  0  0  0
 17 18  1  0  0  0  0
 18 19  2  0  0  0  0
 14 19  1  0  0  0  0
 17 20  1  0  0  0  0
M  END
> <InChI>
InChI=1S/C15H13NO4/c17-10-3-1-9(2-4-10)14(18)13-6-5-12-11(15(19)20)7-8-16(12)13/h1-6,11,17H,7-8H2,(H,19,20)

> <InChIKey>
PIQMOWBWPFGZMW-UHFFFAOYSA-N

> <SMILES>
OC(=O)C1CCN2C1=CC=C2C(=O)C3=CC=C(C=C3)O

> <Synonyms>


> <PUBCHEM_CID>


> <Molecular_formula>
C15H13NO4

> <Major_Isotope_Mass>
271.084457896

> <ALogP>
2.539399999999999

> <Lipinski_Violations>
0

> <Insecticide_Likeness_Violations>
0

> <Post_Em_Herbicide_Likeness_Violations>
0

> <Metabolite_ID>
BTM00008

> <Reaction>
Hydroxylation from CyProduct

> <Reaction_ID>
BTMR1328

> <Enzyme(s)>
CYP2C9
CYP2C19
CYP2D6

> <Biosystem>
HUMAN

> <Precursor_ID>
TEST0031_Ketorolac

> <Precursor_SMILES>
OC(=O)[C@@H]1CCN2C1=CC=C2C(=O)C3=CC=CC=C3

> <Precursor_InChI>
InChI=1S/C15H13NO3/c17-14(10-4-2-1-3-5-10)13-7-6-12-11(15(18)19)8-9-16(12)13/h1-7,11H,8-9H2,(H,18,19)/t11-/m1/s1

> <Precursor_InChIKey>
OZWKMVRBQXNZKK-LLVKDONJSA-N

> <Precursor_ALogP>
2.806799

> <Precursor_Major_Isotope_Mass>
255.0895

$$$$
BTM00009
  CDK     08072416512D

 20 22  0  0  0  0  0  0  0  0999 V2000
    3.3629    2.9461    0.0000 O   0  0  0  0  0  0  0  0  0  0  0  0
    1.8953    2.6360    0.0000 C   0  0  0  0  0  0  0  0  0  0  0  0
    0.8930    3.7520    0.0000 O   0  0  0  0  0  0  0  0  0  0  0  0
    1.4300    1.2100    0.0000 C   0  0  0  0  0  0  0  0  0  0  0  0
    2.3100    0.0000    0.0000 C   0  0  0  0  0  0  0  0  0  0  0  0
    1.4300   -1.2100    0.0000 C   0  0  0  0  0  0  0  0  0  0  0  0
    0.0000   -0.7500    0.0000 N   0  0  0  0  0  0  0  0  0  0  0  0
    0.0000    0.7500    0.0000 C   0  0  0  0  0  0  0  0  0  0  0  0
   -1.4300    1.2100    0.0000 C   0  0  0  0  0  0  0  0  0  0  0  0
   -2.3100    0.0000    0.0000 C   0  0  0  0  0  0  0  0  0  0  0  0
   -1.4300   -1.2100    0.0000 C   0  0  0  0  0  0  0  0  0  0  0  0
   -1.8953   -2.6360    0.0000 C   0  0  0  0  0  0  0  0  0  0  0  0
   -0.8930   -3.7520    0.0000 O   0  0  0  0  0  0  0  0  0  0  0  0
   -3.3629   -2.9461    0.0000 C   0  0  0  0  0  0  0  0  0  0  0  0
   -4.3654   -1.8303    0.0000 C   0  0  0  0  0  0  0  0  0  0  0  0
   -5.8337   -2.1412    0.0000 C   0  0  0  0  0  0  0  0  0  0  0  0
   -6.2920   -3.5613    0.0000 C   0  0  0  0  0  0  0  0  0  0  0  0
   -5.2895   -4.6771    0.0000 C   0  0  0  0  0  0  0  0  0  0  0  0
   -3.8286   -4.3728    0.0000 C   0  0  0  0  0  0  0  0  0  0  0  0
   -6.8380   -1.0271    0.0000 O   0  0  0  0  0  0  0  0  0  0  0  0
  1  2  1  0  0  0  0
  2  3  2  0  0  0  0
  2  4  1  0  0  0  0
  4  5  1  0  0  0  0
  5  6  1  0  0  0  0
  6  7  1  0  0  0  0
  7  8  1  0  0  0  0
  4  8  1  0  0  0  0
  8  9  2  0  0  0  0
  9 10  1  0  0  0  0
 10 11  2  0  0  0  0
  7 11  1  0  0  0  0
 11 12  1  0  0  0  0
 12 13  2  0  0  0  0
 12 14  1  0  0  0  0
 14 15  2  0  0  0  0
 15 16  1  0  0  0  0
 16 17  2  0  0  0  0
 17 18  1  0  0  0  0
 18 19  2  0  0  0  0
 14 19  1  0  0  0  0
 16 20  1  0  0  0  0
M  END
> <InChI>
InChI=1S/C15H13NO4/c17-10-3-1-2-9(8-10)14(18)13-5-4-12-11(15(19)20)6-7-16(12)13/h1-5,8,11,17H,6-7H2,(H,19,20)

> <InChIKey>
UWZMVFOQEGRQRN-UHFFFAOYSA-N

> <SMILES>
OC(=O)C1CCN2C1=CC=C2C(=O)C3=CC(=CC=C3)O

> <Synonyms>


> <PUBCHEM_CID>


> <Molecular_formula>
C15H13NO4

> <Major_Isotope_Mass>
271.084457896

> <ALogP>
2.539399999999999

> <Lipinski_Violations>
0

> <Insecticide_Likeness_Violations>
0

> <Post_Em_Herbicide_Likeness_Violations>
0

> <Metabolite_ID>
BTM00009

> <Reaction>
Hydroxylation from CyProduct

> <Reaction_ID>
BTMR1328

> <Enzyme(s)>
CYP2C19
CYP2D6
CYP3A4

> <Biosystem>
HUMAN

> <Precursor_ID>
TEST0031_Ketorolac

> <Precursor_SMILES>
OC(=O)[C@@H]1CCN2C1=CC=C2C(=O)C3=CC=CC=C3

> <Precursor_InChI>
InChI=1S/C15H13NO3/c17-14(10-4-2-1-3-5-10)13-7-6-12-11(15(18)19)8-9-16(12)13/h1-7,11H,8-9H2,(H,18,19)/t11-/m1/s1

> <Precursor_InChIKey>
OZWKMVRBQXNZKK-LLVKDONJSA-N

> <Precursor_ALogP>
2.806799

> <Precursor_Major_Isotope_Mass>
255.0895

$$$$
