BTM00001
  CDK     08072416462D

 23 25  0  0  1  0  0  0  0  0999 V2000
   -6.8100   -2.5981    0.0000 S   0  0  0  0  0  0  0  0  0  0  0  0
   -7.0705   -4.0753    0.0000 O   0  0  0  0  0  0  0  0  0  0  0  0
   -5.4005   -3.1111    0.0000 O   0  0  0  0  0  0  0  0  0  0  0  0
   -6.0600   -1.2990    0.0000 N   0  0  0  0  0  0  0  0  0  0  0  0
   -4.5600   -1.2990    0.0000 C   0  0  0  0  0  0  0  0  0  0  0  0
   -3.8100   -2.5981    0.0000 O   0  0  0  0  0  0  0  0  0  0  0  0
   -3.8100    0.0000    0.0000 N   0  0  0  0  0  0  0  0  0  0  0  0
   -2.3100    0.0000    0.0000 N   0  0  0  0  0  0  0  0  0  0  0  0
   -1.4300   -1.2100    0.0000 C   0  0  0  0  0  0  0  0  0  0  0  0
    0.0000   -0.7500    0.0000 C   0  0  2  0  0  0  0  0  0  0  0  0
    0.0000    0.7500    0.0000 C   0  0  1  0  0  0  0  0  0  0  0  0
    1.4300    1.2100    0.0000 C   0  0  0  0  0  0  0  0  0  0  0  0
    2.3100    0.0000    0.0000 C   0  0  0  0  0  0  0  0  0  0  0  0
    1.4300   -1.2100    0.0000 C   0  0  0  0  0  0  0  0  0  0  0  0
   -1.4300    1.2100    0.0000 C   0  0  0  0  0  0  0  0  0  0  0  0
   -8.3100   -2.5981    0.0000 C   0  0  0  0  0  0  0  0  0  0  0  0
   -9.0602   -3.8970    0.0000 C   0  0  0  0  0  0  0  0  0  0  0  0
  -10.5610   -3.8963    0.0000 C   0  0  0  0  0  0  0  0  0  0  0  0
  -11.3117   -2.5966    0.0000 C   0  0  0  0  0  0  0  0  0  0  0  0
  -10.5615   -1.2977    0.0000 C   0  0  0  0  0  0  0  0  0  0  0  0
   -9.0606   -1.2984    0.0000 C   0  0  0  0  0  0  0  0  0  0  0  0
  -12.8117   -2.5966    0.0000 C   0  0  0  0  0  0  0  0  0  0  0  0
  -13.5617   -3.8957    0.0000 O   0  0  0  0  0  0  0  0  0  0  0  0
  1  2  2  0  0  0  0
  1  3  2  0  0  0  0
  1  4  1  0  0  0  0
  4  5  1  0  0  0  0
  5  6  2  0  0  0  0
  5  7  1  0  0  0  0
  7  8  1  0  0  0  0
  8  9  1  0  0  0  0
 10  9  1  6  0  0  0
 10 11  1  0  0  0  0
 11 12  1  6  0  0  0
 12 13  1  0  0  0  0
 13 14  1  0  0  0  0
 10 14  1  0  0  0  0
 11 15  1  0  0  0  0
  8 15  1  0  0  0  0
  1 16  1  0  0  0  0
 16 17  2  0  0  0  0
 17 18  1  0  0  0  0
 18 19  2  0  0  0  0
 19 20  1  0  0  0  0
 20 21  2  0  0  0  0
 16 21  1  0  0  0  0
 19 22  1  0  0  0  0
 23 22  1  0  0  0  0
M  END
> <InChI>
InChI=1S/C15H21N3O4S/c19-10-11-4-6-14(7-5-11)23(21,22)17-15(20)16-18-8-12-2-1-3-13(12)9-18/h4-7,12-13,19H,1-3,8-10H2,(H2,16,17,20)/t12-,13+

> <InChIKey>
IHCHVBQHVIUSTM-BETUJISGSA-N

> <SMILES>
S(=O)(=O)(NC(=O)NN1C[C@@H]2[C@@H](CCC2)C1)C3=CC=C(C=C3)CO

> <Synonyms>


> <PUBCHEM_CID>


> <Molecular_formula>
C15H21N3O4S

> <Major_Isotope_Mass>
339.1252771520001

> <ALogP>
1.2163000000000015

> <Lipinski_Violations>
0

> <Insecticide_Likeness_Violations>
1

> <Post_Em_Herbicide_Likeness_Violations>
1

> <Metabolite_ID>
BTM00001

> <Reaction>
Aliphatic hydroxylation of methyl carbon adjacent to aromatic ring

> <Reaction_ID>
BTMR1058

> <Enzyme(s)>
CYP1A2
CYP2A6
CYP2B6
CYP2C8
CYP2C9
CYP2C19
CYP2D6
CYP2E1
CYP3A4

> <Biosystem>
HUMAN

> <Precursor_ID>
TEST0003_Gliclazide

> <Precursor_SMILES>
S(=O)(=O)(NC(=O)NN1C[C@@H]2[C@@H](CCC2)C1)C3=CC=C(C=C3)C

> <Precursor_InChI>
InChI=1S/C15H21N3O3S/c1-11-5-7-14(8-6-11)22(20,21)17-15(19)16-18-9-12-3-2-4-13(12)10-18/h5-8,12-13H,2-4,9-10H2,1H3,(H2,16,17,19)/t12-,13+

> <Precursor_InChIKey>
BOVGTQGAOIONJV-BETUJISGSA-N

> <Precursor_ALogP>
2.307000

> <Precursor_Major_Isotope_Mass>
323.1303

$$$$
BTM00002
  CDK     08072416462D

 23 25  0  0  1  0  0  0  0  0999 V2000
   -6.8100    2.5981    0.0000 S   0  0  0  0  0  0  0  0  0  0  0  0
   -5.4005    3.1111    0.0000 O   0  0  0  0  0  0  0  0  0  0  0  0
   -7.0705    4.0753    0.0000 O   0  0  0  0  0  0  0  0  0  0  0  0
   -6.0600    1.2990    0.0000 N   0  0  0  0  0  0  0  0  0  0  0  0
   -4.5600    1.2990    0.0000 C   0  0  0  0  0  0  0  0  0  0  0  0
   -3.8100    2.5981    0.0000 O   0  0  0  0  0  0  0  0  0  0  0  0
   -3.8100    0.0000    0.0000 N   0  0  0  0  0  0  0  0  0  0  0  0
   -2.3100    0.0000    0.0000 N   0  0  0  0  0  0  0  0  0  0  0  0
   -1.4300   -1.2100    0.0000 C   0  0  0  0  0  0  0  0  0  0  0  0
    0.0000   -0.7500    0.0000 C   0  0  2  0  0  0  0  0  0  0  0  0
    0.0000    0.7500    0.0000 C   0  0  1  0  0  0  0  0  0  0  0  0
    1.4300    1.2100    0.0000 C   0  0  0  0  0  0  0  0  0  0  0  0
    2.3100    0.0000    0.0000 C   0  0  0  0  0  0  0  0  0  0  0  0
    1.4300   -1.2100    0.0000 C   0  0  0  0  0  0  0  0  0  0  0  0
   -1.4300    1.2100    0.0000 C   0  0  0  0  0  0  0  0  0  0  0  0
   -8.3100    2.5981    0.0000 C   0  0  0  0  0  0  0  0  0  0  0  0
   -9.0602    1.2992    0.0000 C   0  0  0  0  0  0  0  0  0  0  0  0
  -10.5610    1.2999    0.0000 C   0  0  0  0  0  0  0  0  0  0  0  0
  -11.3117    2.5995    0.0000 C   0  0  0  0  0  0  0  0  0  0  0  0
  -10.5615    3.8984    0.0000 C   0  0  0  0  0  0  0  0  0  0  0  0
   -9.0606    3.8977    0.0000 C   0  0  0  0  0  0  0  0  0  0  0  0
  -12.8117    2.5995    0.0000 C   0  0  0  0  0  0  0  0  0  0  0  0
   -1.8953   -2.6360    0.0000 O   0  0  0  0  0  0  0  0  0  0  0  0
  1  2  2  0  0  0  0
  1  3  2  0  0  0  0
  1  4  1  0  0  0  0
  4  5  1  0  0  0  0
  5  6  2  0  0  0  0
  5  7  1  0  0  0  0
  7  8  1  0  0  0  0
  8  9  1  0  0  0  0
  9 10  1  0  0  0  0
 10 11  1  0  0  0  0
 11 12  1  6  0  0  0
 12 13  1  0  0  0  0
 13 14  1  0  0  0  0
 10 14  1  6  0  0  0
 11 15  1  0  0  0  0
  8 15  1  0  0  0  0
  1 16  1  0  0  0  0
 16 17  2  0  0  0  0
 17 18  1  0  0  0  0
 18 19  2  0  0  0  0
 19 20  1  0  0  0  0
 20 21  2  0  0  0  0
 16 21  1  0  0  0  0
 19 22  1  0  0  0  0
 23  9  1  0  0  0  0
M  END
> <InChI>
InChI=1S/C15H21N3O4S/c1-10-5-7-12(8-6-10)23(21,22)17-15(20)16-18-9-11-3-2-4-13(11)14(18)19/h5-8,11,13-14,19H,2-4,9H2,1H3,(H2,16,17,20)/t11-,13-,14?/m0/s1

> <InChIKey>
ASBOSFDUYXUJLV-ULVQEXTCSA-N

> <SMILES>
S(=O)(=O)(NC(=O)NN1C([C@@H]2[C@@H](CCC2)C1)O)C3=CC=C(C=C3)C

> <Synonyms>


> <PUBCHEM_CID>


> <Molecular_formula>
C15H21N3O4S

> <Major_Isotope_Mass>
339.125277152

> <ALogP>
1.8378999999999999

> <Lipinski_Violations>
0

> <Insecticide_Likeness_Violations>
1

> <Post_Em_Herbicide_Likeness_Violations>
1

> <Metabolite_ID>
BTM00002

> <Reaction>
Hydroxylation of heteroalicyclic secondary carbon

> <Reaction_ID>
BTMR1070

> <Enzyme(s)>
CYP1A2
CYP2A6
CYP2C9
CYP2D6
CYP3A4

> <Biosystem>
HUMAN

> <Precursor_ID>
TEST0003_Gliclazide

> <Precursor_SMILES>
S(=O)(=O)(NC(=O)NN1C[C@@H]2[C@@H](CCC2)C1)C3=CC=C(C=C3)C

> <Precursor_InChI>
InChI=1S/C15H21N3O3S/c1-11-5-7-14(8-6-11)22(20,21)17-15(19)16-18-9-12-3-2-4-13(12)10-18/h5-8,12-13H,2-4,9-10H2,1H3,(H2,16,17,19)/t12-,13+

> <Precursor_InChIKey>
BOVGTQGAOIONJV-BETUJISGSA-N

> <Precursor_ALogP>
2.307000

> <Precursor_Major_Isotope_Mass>
323.1303

$$$$
BTM00003
  CDK     08072416462D

 23 25  0  0  1  0  0  0  0  0999 V2000
   -6.8100   -2.5981    0.0000 S   0  0  0  0  0  0  0  0  0  0  0  0
   -7.0705   -4.0753    0.0000 O   0  0  0  0  0  0  0  0  0  0  0  0
   -5.4005   -3.1111    0.0000 O   0  0  0  0  0  0  0  0  0  0  0  0
   -6.0600   -1.2990    0.0000 N   0  0  0  0  0  0  0  0  0  0  0  0
   -4.5600   -1.2990    0.0000 C   0  0  0  0  0  0  0  0  0  0  0  0
   -3.8100   -2.5981    0.0000 O   0  0  0  0  0  0  0  0  0  0  0  0
   -3.8100    0.0000    0.0000 N   0  0  0  0  0  0  0  0  0  0  0  0
   -2.3100    0.0000    0.0000 N   0  0  0  0  0  0  0  0  0  0  0  0
   -1.4300   -1.2100    0.0000 C   0  0  0  0  0  0  0  0  0  0  0  0
    0.0000   -0.7500    0.0000 C   0  0  2  0  0  0  0  0  0  0  0  0
    0.0000    0.7500    0.0000 C   0  0  1  0  0  0  0  0  0  0  0  0
    1.4300    1.2100    0.0000 C   0  0  0  0  0  0  0  0  0  0  0  0
    2.3100    0.0000    0.0000 C   0  0  0  0  0  0  0  0  0  0  0  0
    1.4300   -1.2100    0.0000 C   0  0  0  0  0  0  0  0  0  0  0  0
   -1.4300    1.2100    0.0000 C   0  0  0  0  0  0  0  0  0  0  0  0
   -8.3100   -2.5981    0.0000 C   0  0  0  0  0  0  0  0  0  0  0  0
   -9.0602   -3.8970    0.0000 C   0  0  0  0  0  0  0  0  0  0  0  0
  -10.5610   -3.8963    0.0000 C   0  0  0  0  0  0  0  0  0  0  0  0
  -11.3117   -2.5966    0.0000 C   0  0  0  0  0  0  0  0  0  0  0  0
  -10.5615   -1.2977    0.0000 C   0  0  0  0  0  0  0  0  0  0  0  0
   -9.0606   -1.2984    0.0000 C   0  0  0  0  0  0  0  0  0  0  0  0
  -12.8117   -2.5966    0.0000 C   0  0  0  0  0  0  0  0  0  0  0  0
   -1.8953    2.6360    0.0000 O   0  0  0  0  0  0  0  0  0  0  0  0
  1  2  2  0  0  0  0
  1  3  2  0  0  0  0
  1  4  1  0  0  0  0
  4  5  1  0  0  0  0
  5  6  2  0  0  0  0
  5  7  1  0  0  0  0
  7  8  1  0  0  0  0
  8  9  1  0  0  0  0
 10  9  1  6  0  0  0
 10 11  1  0  0  0  0
 11 12  1  6  0  0  0
 12 13  1  0  0  0  0
 13 14  1  0  0  0  0
 10 14  1  0  0  0  0
 11 15  1  0  0  0  0
  8 15  1  0  0  0  0
  1 16  1  0  0  0  0
 16 17  2  0  0  0  0
 17 18  1  0  0  0  0
 18 19  2  0  0  0  0
 19 20  1  0  0  0  0
 20 21  2  0  0  0  0
 16 21  1  0  0  0  0
 19 22  1  0  0  0  0
 23 15  1  0  0  0  0
M  END
> <InChI>
InChI=1S/C15H21N3O4S/c1-10-5-7-12(8-6-10)23(21,22)17-15(20)16-18-9-11-3-2-4-13(11)14(18)19/h5-8,11,13-14,19H,2-4,9H2,1H3,(H2,16,17,20)/t11-,13-,14?/m1/s1

> <InChIKey>
ASBOSFDUYXUJLV-AYBZEELNSA-N

> <SMILES>
S(=O)(=O)(NC(=O)NN1C[C@@H]2[C@@H](CCC2)C1O)C3=CC=C(C=C3)C

> <Synonyms>


> <PUBCHEM_CID>


> <Molecular_formula>
C15H21N3O4S

> <Major_Isotope_Mass>
339.125277152

> <ALogP>
1.8378999999999999

> <Lipinski_Violations>
0

> <Insecticide_Likeness_Violations>
1

> <Post_Em_Herbicide_Likeness_Violations>
1

> <Metabolite_ID>
BTM00003

> <Reaction>
Hydroxylation of heteroalicyclic secondary carbon

> <Reaction_ID>
BTMR1070

> <Enzyme(s)>
CYP1A2
CYP2A6
CYP2C9
CYP2D6
CYP3A4

> <Biosystem>
HUMAN

> <Precursor_ID>
TEST0003_Gliclazide

> <Precursor_SMILES>
S(=O)(=O)(NC(=O)NN1C[C@@H]2[C@@H](CCC2)C1)C3=CC=C(C=C3)C

> <Precursor_InChI>
InChI=1S/C15H21N3O3S/c1-11-5-7-14(8-6-11)22(20,21)17-15(19)16-18-9-12-3-2-4-13(12)10-18/h5-8,12-13H,2-4,9-10H2,1H3,(H2,16,17,19)/t12-,13+

> <Precursor_InChIKey>
BOVGTQGAOIONJV-BETUJISGSA-N

> <Precursor_ALogP>
2.307000

> <Precursor_Major_Isotope_Mass>
323.1303

$$$$
BTM00004
  CDK     08072416462D

 23 25  0  0  1  0  0  0  0  0999 V2000
   -6.8100    2.5981    0.0000 S   0  0  0  0  0  0  0  0  0  0  0  0
   -5.4005    3.1111    0.0000 O   0  0  0  0  0  0  0  0  0  0  0  0
   -7.0705    4.0753    0.0000 O   0  0  0  0  0  0  0  0  0  0  0  0
   -6.0600    1.2990    0.0000 N   0  0  0  0  0  0  0  0  0  0  0  0
   -4.5600    1.2990    0.0000 C   0  0  0  0  0  0  0  0  0  0  0  0
   -3.8100    2.5981    0.0000 O   0  0  0  0  0  0  0  0  0  0  0  0
   -3.8100    0.0000    0.0000 N   0  0  0  0  0  0  0  0  0  0  0  0
   -2.3100    0.0000    0.0000 N   0  0  0  0  0  0  0  0  0  0  0  0
   -1.4300   -1.2100    0.0000 C   0  0  0  0  0  0  0  0  0  0  0  0
    0.0000   -0.7500    0.0000 C   0  0  0  0  0  0  0  0  0  0  0  0
    0.0000    0.7500    0.0000 C   0  0  1  0  0  0  0  0  0  0  0  0
    1.4300    1.2100    0.0000 C   0  0  0  0  0  0  0  0  0  0  0  0
    2.3100    0.0000    0.0000 C   0  0  0  0  0  0  0  0  0  0  0  0
    1.4300   -1.2100    0.0000 C   0  0  0  0  0  0  0  0  0  0  0  0
   -1.4300    1.2100    0.0000 C   0  0  0  0  0  0  0  0  0  0  0  0
   -8.3100    2.5981    0.0000 C   0  0  0  0  0  0  0  0  0  0  0  0
   -9.0602    1.2992    0.0000 C   0  0  0  0  0  0  0  0  0  0  0  0
  -10.5610    1.2999    0.0000 C   0  0  0  0  0  0  0  0  0  0  0  0
  -11.3117    2.5995    0.0000 C   0  0  0  0  0  0  0  0  0  0  0  0
  -10.5615    3.8984    0.0000 C   0  0  0  0  0  0  0  0  0  0  0  0
   -9.0606    3.8977    0.0000 C   0  0  0  0  0  0  0  0  0  0  0  0
  -12.8117    2.5995    0.0000 C   0  0  0  0  0  0  0  0  0  0  0  0
   -0.0000   -2.2500    0.0000 O   0  0  0  0  0  0  0  0  0  0  0  0
  1  2  2  0  0  0  0
  1  3  2  0  0  0  0
  1  4  1  0  0  0  0
  4  5  1  0  0  0  0
  5  6  2  0  0  0  0
  5  7  1  0  0  0  0
  7  8  1  0  0  0  0
  8  9  1  0  0  0  0
  9 10  1  0  0  0  0
 10 11  1  0  0  0  0
 11 12  1  6  0  0  0
 12 13  1  0  0  0  0
 13 14  1  0  0  0  0
 10 14  1  0  0  0  0
 11 15  1  0  0  0  0
  8 15  1  0  0  0  0
  1 16  1  0  0  0  0
 16 17  2  0  0  0  0
 17 18  1  0  0  0  0
 18 19  2  0  0  0  0
 19 20  1  0  0  0  0
 20 21  2  0  0  0  0
 16 21  1  0  0  0  0
 19 22  1  0  0  0  0
 23 10  1  0  0  0  0
M  END
> <InChI>
InChI=1S/C15H21N3O4S/c1-11-4-6-13(7-5-11)23(21,22)17-14(19)16-18-9-12-3-2-8-15(12,20)10-18/h4-7,12,20H,2-3,8-10H2,1H3,(H2,16,17,19)/t12-,15?/m0/s1

> <InChIKey>
XUFBXVMZXYAUCZ-SFVWDYPZSA-N

> <SMILES>
S(=O)(=O)(NC(=O)NN1CC2([C@@H](CCC2)C1)O)C3=CC=C(C=C3)C

> <Synonyms>


> <PUBCHEM_CID>


> <Molecular_formula>
C15H21N3O4S

> <Major_Isotope_Mass>
339.12527715199997

> <ALogP>
1.2989000000000013

> <Lipinski_Violations>
0

> <Insecticide_Likeness_Violations>
1

> <Post_Em_Herbicide_Likeness_Violations>
1

> <Metabolite_ID>
BTM00004

> <Reaction>
Hydroxylation of alicyclic tertiary carbon

> <Reaction_ID>
BTMR1243

> <Enzyme(s)>
CYP1A2

> <Biosystem>
HUMAN

> <Precursor_ID>
TEST0003_Gliclazide

> <Precursor_SMILES>
S(=O)(=O)(NC(=O)NN1C[C@@H]2[C@@H](CCC2)C1)C3=CC=C(C=C3)C

> <Precursor_InChI>
InChI=1S/C15H21N3O3S/c1-11-5-7-14(8-6-11)22(20,21)17-15(19)16-18-9-12-3-2-4-13(12)10-18/h5-8,12-13H,2-4,9-10H2,1H3,(H2,16,17,19)/t12-,13+

> <Precursor_InChIKey>
BOVGTQGAOIONJV-BETUJISGSA-N

> <Precursor_ALogP>
2.307000

> <Precursor_Major_Isotope_Mass>
323.1303

$$$$
BTM00005
  CDK     08072416462D

 23 25  0  0  1  0  0  0  0  0999 V2000
   -6.8100   -2.5981    0.0000 S   0  0  0  0  0  0  0  0  0  0  0  0
   -7.0705   -4.0753    0.0000 O   0  0  0  0  0  0  0  0  0  0  0  0
   -5.4005   -3.1111    0.0000 O   0  0  0  0  0  0  0  0  0  0  0  0
   -6.0600   -1.2990    0.0000 N   0  0  0  0  0  0  0  0  0  0  0  0
   -4.5600   -1.2990    0.0000 C   0  0  0  0  0  0  0  0  0  0  0  0
   -3.8100   -2.5981    0.0000 O   0  0  0  0  0  0  0  0  0  0  0  0
   -3.8100    0.0000    0.0000 N   0  0  0  0  0  0  0  0  0  0  0  0
   -2.3100    0.0000    0.0000 N   0  0  0  0  0  0  0  0  0  0  0  0
   -1.4300   -1.2100    0.0000 C   0  0  0  0  0  0  0  0  0  0  0  0
    0.0000   -0.7500    0.0000 C   0  0  2  0  0  0  0  0  0  0  0  0
    0.0000    0.7500    0.0000 C   0  0  0  0  0  0  0  0  0  0  0  0
    1.4300    1.2100    0.0000 C   0  0  0  0  0  0  0  0  0  0  0  0
    2.3100    0.0000    0.0000 C   0  0  0  0  0  0  0  0  0  0  0  0
    1.4300   -1.2100    0.0000 C   0  0  0  0  0  0  0  0  0  0  0  0
   -1.4300    1.2100    0.0000 C   0  0  0  0  0  0  0  0  0  0  0  0
   -8.3100   -2.5981    0.0000 C   0  0  0  0  0  0  0  0  0  0  0  0
   -9.0602   -3.8970    0.0000 C   0  0  0  0  0  0  0  0  0  0  0  0
  -10.5610   -3.8963    0.0000 C   0  0  0  0  0  0  0  0  0  0  0  0
  -11.3117   -2.5966    0.0000 C   0  0  0  0  0  0  0  0  0  0  0  0
  -10.5615   -1.2977    0.0000 C   0  0  0  0  0  0  0  0  0  0  0  0
   -9.0606   -1.2984    0.0000 C   0  0  0  0  0  0  0  0  0  0  0  0
  -12.8117   -2.5966    0.0000 C   0  0  0  0  0  0  0  0  0  0  0  0
    0.0000    2.2500    0.0000 O   0  0  0  0  0  0  0  0  0  0  0  0
  1  2  2  0  0  0  0
  1  3  2  0  0  0  0
  1  4  1  0  0  0  0
  4  5  1  0  0  0  0
  5  6  2  0  0  0  0
  5  7  1  0  0  0  0
  7  8  1  0  0  0  0
  8  9  1  0  0  0  0
 10  9  1  6  0  0  0
 10 11  1  0  0  0  0
 11 12  1  0  0  0  0
 12 13  1  0  0  0  0
 13 14  1  0  0  0  0
 10 14  1  0  0  0  0
 11 15  1  0  0  0  0
  8 15  1  0  0  0  0
  1 16  1  0  0  0  0
 16 17  2  0  0  0  0
 17 18  1  0  0  0  0
 18 19  2  0  0  0  0
 19 20  1  0  0  0  0
 20 21  2  0  0  0  0
 16 21  1  0  0  0  0
 19 22  1  0  0  0  0
 23 11  1  0  0  0  0
M  END
> <InChI>
InChI=1S/C15H21N3O4S/c1-11-4-6-13(7-5-11)23(21,22)17-14(19)16-18-9-12-3-2-8-15(12,20)10-18/h4-7,12,20H,2-3,8-10H2,1H3,(H2,16,17,19)/t12-,15?/m1/s1

> <InChIKey>
XUFBXVMZXYAUCZ-KEKZHRQWSA-N

> <SMILES>
S(=O)(=O)(NC(=O)NN1C[C@@H]2C(CCC2)(C1)O)C3=CC=C(C=C3)C

> <Synonyms>


> <PUBCHEM_CID>


> <Molecular_formula>
C15H21N3O4S

> <Major_Isotope_Mass>
339.1252771520001

> <ALogP>
1.2989000000000013

> <Lipinski_Violations>
0

> <Insecticide_Likeness_Violations>
1

> <Post_Em_Herbicide_Likeness_Violations>
1

> <Metabolite_ID>
BTM00005

> <Reaction>
Hydroxylation of alicyclic tertiary carbon

> <Reaction_ID>
BTMR1243

> <Enzyme(s)>
CYP1A2

> <Biosystem>
HUMAN

> <Precursor_ID>
TEST0003_Gliclazide

> <Precursor_SMILES>
S(=O)(=O)(NC(=O)NN1C[C@@H]2[C@@H](CCC2)C1)C3=CC=C(C=C3)C

> <Precursor_InChI>
InChI=1S/C15H21N3O3S/c1-11-5-7-14(8-6-11)22(20,21)17-15(19)16-18-9-12-3-2-4-13(12)10-18/h5-8,12-13H,2-4,9-10H2,1H3,(H2,16,17,19)/t12-,13+

> <Precursor_InChIKey>
BOVGTQGAOIONJV-BETUJISGSA-N

> <Precursor_ALogP>
2.307000

> <Precursor_Major_Isotope_Mass>
323.1303

$$$$
BTM00006
  CDK     08072416462D

 23 25  0  0  1  0  0  0  0  0999 V2000
   -6.8100   -2.5981    0.0000 S   0  0  0  0  0  0  0  0  0  0  0  0
   -7.0705   -4.0753    0.0000 O   0  0  0  0  0  0  0  0  0  0  0  0
   -5.4005   -3.1111    0.0000 O   0  0  0  0  0  0  0  0  0  0  0  0
   -6.0600   -1.2990    0.0000 N   0  0  0  0  0  0  0  0  0  0  0  0
   -4.5600   -1.2990    0.0000 C   0  0  0  0  0  0  0  0  0  0  0  0
   -3.8100   -2.5981    0.0000 O   0  0  0  0  0  0  0  0  0  0  0  0
   -3.8100    0.0000    0.0000 N   0  0  0  0  0  0  0  0  0  0  0  0
   -2.3100    0.0000    0.0000 N   0  0  0  0  0  0  0  0  0  0  0  0
   -1.4300   -1.2100    0.0000 C   0  0  0  0  0  0  0  0  0  0  0  0
    0.0000   -0.7500    0.0000 C   0  0  2  0  0  0  0  0  0  0  0  0
    0.0000    0.7500    0.0000 C   0  0  1  0  0  0  0  0  0  0  0  0
    1.4300    1.2100    0.0000 C   0  0  0  0  0  0  0  0  0  0  0  0
    2.3100    0.0000    0.0000 C   0  0  0  0  0  0  0  0  0  0  0  0
    1.4300   -1.2100    0.0000 C   0  0  0  0  0  0  0  0  0  0  0  0
   -1.4300    1.2100    0.0000 C   0  0  0  0  0  0  0  0  0  0  0  0
   -8.3100   -2.5981    0.0000 C   0  0  0  0  0  0  0  0  0  0  0  0
   -9.0602   -3.8970    0.0000 C   0  0  0  0  0  0  0  0  0  0  0  0
  -10.5610   -3.8963    0.0000 C   0  0  0  0  0  0  0  0  0  0  0  0
  -11.3117   -2.5966    0.0000 C   0  0  0  0  0  0  0  0  0  0  0  0
  -10.5615   -1.2977    0.0000 C   0  0  0  0  0  0  0  0  0  0  0  0
   -9.0606   -1.2984    0.0000 C   0  0  0  0  0  0  0  0  0  0  0  0
  -12.8117   -2.5966    0.0000 C   0  0  0  0  0  0  0  0  0  0  0  0
    1.8953    2.6360    0.0000 O   0  0  0  0  0  0  0  0  0  0  0  0
  1  2  2  0  0  0  0
  1  3  2  0  0  0  0
  1  4  1  0  0  0  0
  4  5  1  0  0  0  0
  5  6  2  0  0  0  0
  5  7  1  0  0  0  0
  7  8  1  0  0  0  0
  8  9  1  0  0  0  0
 10  9  1  6  0  0  0
 10 11  1  0  0  0  0
 11 12  1  0  0  0  0
 12 13  1  0  0  0  0
 13 14  1  0  0  0  0
 10 14  1  0  0  0  0
 11 15  1  6  0  0  0
  8 15  1  0  0  0  0
  1 16  1  0  0  0  0
 16 17  2  0  0  0  0
 17 18  1  0  0  0  0
 18 19  2  0  0  0  0
 19 20  1  0  0  0  0
 20 21  2  0  0  0  0
 16 21  1  0  0  0  0
 19 22  1  0  0  0  0
 23 12  1  0  0  0  0
M  END
> <InChI>
InChI=1S/C15H21N3O4S/c1-10-2-5-12(6-3-10)23(21,22)17-15(20)16-18-8-11-4-7-14(19)13(11)9-18/h2-3,5-6,11,13-14,19H,4,7-9H2,1H3,(H2,16,17,20)/t11-,13+,14?/m1/s1

> <InChIKey>
VUUZEWXIRFGRFE-LXKBMQFRSA-N

> <SMILES>
S(=O)(=O)(NC(=O)NN1C[C@@H]2[C@@H](C(CC2)O)C1)C3=CC=C(C=C3)C

> <Synonyms>


> <PUBCHEM_CID>


> <Molecular_formula>
C15H21N3O4S

> <Major_Isotope_Mass>
339.12527715199997

> <ALogP>
1.0757

> <Lipinski_Violations>
0

> <Insecticide_Likeness_Violations>
1

> <Post_Em_Herbicide_Likeness_Violations>
1

> <Metabolite_ID>
BTM00006

> <Reaction>
Hydroxylation of alicyclic secondary carbon

> <Reaction_ID>
BTMR1067

> <Enzyme(s)>
CYP2B6
CYP2C9
CYP3A4

> <Biosystem>
HUMAN

> <Precursor_ID>
TEST0003_Gliclazide

> <Precursor_SMILES>
S(=O)(=O)(NC(=O)NN1C[C@@H]2[C@@H](CCC2)C1)C3=CC=C(C=C3)C

> <Precursor_InChI>
InChI=1S/C15H21N3O3S/c1-11-5-7-14(8-6-11)22(20,21)17-15(19)16-18-9-12-3-2-4-13(12)10-18/h5-8,12-13H,2-4,9-10H2,1H3,(H2,16,17,19)/t12-,13+

> <Precursor_InChIKey>
BOVGTQGAOIONJV-BETUJISGSA-N

> <Precursor_ALogP>
2.307000

> <Precursor_Major_Isotope_Mass>
323.1303

$$$$
BTM00007
  CDK     08072416462D

 23 25  0  0  1  0  0  0  0  0999 V2000
   -6.8100   -2.5981    0.0000 S   0  0  0  0  0  0  0  0  0  0  0  0
   -7.0705   -4.0753    0.0000 O   0  0  0  0  0  0  0  0  0  0  0  0
   -5.4005   -3.1111    0.0000 O   0  0  0  0  0  0  0  0  0  0  0  0
   -6.0600   -1.2990    0.0000 N   0  0  0  0  0  0  0  0  0  0  0  0
   -4.5600   -1.2990    0.0000 C   0  0  0  0  0  0  0  0  0  0  0  0
   -3.8100   -2.5981    0.0000 O   0  0  0  0  0  0  0  0  0  0  0  0
   -3.8100    0.0000    0.0000 N   0  0  0  0  0  0  0  0  0  0  0  0
   -2.3100    0.0000    0.0000 N   0  0  0  0  0  0  0  0  0  0  0  0
   -1.4300   -1.2100    0.0000 C   0  0  0  0  0  0  0  0  0  0  0  0
    0.0000   -0.7500    0.0000 C   0  0  2  0  0  0  0  0  0  0  0  0
    0.0000    0.7500    0.0000 C   0  0  1  0  0  0  0  0  0  0  0  0
    1.4300    1.2100    0.0000 C   0  0  0  0  0  0  0  0  0  0  0  0
    2.3100    0.0000    0.0000 C   0  0  0  0  0  0  0  0  0  0  0  0
    1.4300   -1.2100    0.0000 C   0  0  0  0  0  0  0  0  0  0  0  0
   -1.4300    1.2100    0.0000 C   0  0  0  0  0  0  0  0  0  0  0  0
   -8.3100   -2.5981    0.0000 C   0  0  0  0  0  0  0  0  0  0  0  0
   -9.0602   -3.8970    0.0000 C   0  0  0  0  0  0  0  0  0  0  0  0
  -10.5610   -3.8963    0.0000 C   0  0  0  0  0  0  0  0  0  0  0  0
  -11.3117   -2.5966    0.0000 C   0  0  0  0  0  0  0  0  0  0  0  0
  -10.5615   -1.2977    0.0000 C   0  0  0  0  0  0  0  0  0  0  0  0
   -9.0606   -1.2984    0.0000 C   0  0  0  0  0  0  0  0  0  0  0  0
  -12.8117   -2.5966    0.0000 C   0  0  0  0  0  0  0  0  0  0  0  0
    3.8100   -0.0000    0.0000 O   0  0  0  0  0  0  0  0  0  0  0  0
  1  2  2  0  0  0  0
  1  3  2  0  0  0  0
  1  4  1  0  0  0  0
  4  5  1  0  0  0  0
  5  6  2  0  0  0  0
  5  7  1  0  0  0  0
  7  8  1  0  0  0  0
  8  9  1  0  0  0  0
 10  9  1  6  0  0  0
 10 11  1  0  0  0  0
 11 12  1  6  0  0  0
 12 13  1  0  0  0  0
 13 14  1  0  0  0  0
 10 14  1  0  0  0  0
 11 15  1  0  0  0  0
  8 15  1  0  0  0  0
  1 16  1  0  0  0  0
 16 17  2  0  0  0  0
 17 18  1  0  0  0  0
 18 19  2  0  0  0  0
 19 20  1  0  0  0  0
 20 21  2  0  0  0  0
 16 21  1  0  0  0  0
 19 22  1  0  0  0  0
 23 13  1  0  0  0  0
M  END
> <InChI>
InChI=1S/C15H21N3O4S/c1-10-2-4-14(5-3-10)23(21,22)17-15(20)16-18-8-11-6-13(19)7-12(11)9-18/h2-5,11-13,19H,6-9H2,1H3,(H2,16,17,20)/t11-,12+,13?

> <InChIKey>
JMHDCYDSYHLATB-FUNVUKJBSA-N

> <SMILES>
S(=O)(=O)(NC(=O)NN1C[C@@H]2[C@@H](CC(C2)O)C1)C3=CC=C(C=C3)C

> <Synonyms>


> <PUBCHEM_CID>


> <Molecular_formula>
C15H21N3O4S

> <Major_Isotope_Mass>
339.125277152

> <ALogP>
1.0701000000000007

> <Lipinski_Violations>
0

> <Insecticide_Likeness_Violations>
1

> <Post_Em_Herbicide_Likeness_Violations>
1

> <Metabolite_ID>
BTM00007

> <Reaction>
Hydroxylation of alicyclic secondary carbon

> <Reaction_ID>
BTMR1067

> <Enzyme(s)>
CYP2B6
CYP2C9
CYP3A4

> <Biosystem>
HUMAN

> <Precursor_ID>
TEST0003_Gliclazide

> <Precursor_SMILES>
S(=O)(=O)(NC(=O)NN1C[C@@H]2[C@@H](CCC2)C1)C3=CC=C(C=C3)C

> <Precursor_InChI>
InChI=1S/C15H21N3O3S/c1-11-5-7-14(8-6-11)22(20,21)17-15(19)16-18-9-12-3-2-4-13(12)10-18/h5-8,12-13H,2-4,9-10H2,1H3,(H2,16,17,19)/t12-,13+

> <Precursor_InChIKey>
BOVGTQGAOIONJV-BETUJISGSA-N

> <Precursor_ALogP>
2.307000

> <Precursor_Major_Isotope_Mass>
323.1303

$$$$
BTM00008
  CDK     08072416462D

 23 25  0  0  1  0  0  0  0  0999 V2000
   -6.8100    2.5981    0.0000 S   0  0  0  0  0  0  0  0  0  0  0  0
   -5.4005    3.1111    0.0000 O   0  0  0  0  0  0  0  0  0  0  0  0
   -7.0705    4.0753    0.0000 O   0  0  0  0  0  0  0  0  0  0  0  0
   -6.0600    1.2990    0.0000 N   0  0  0  0  0  0  0  0  0  0  0  0
   -4.5600    1.2990    0.0000 C   0  0  0  0  0  0  0  0  0  0  0  0
   -3.8100    2.5981    0.0000 O   0  0  0  0  0  0  0  0  0  0  0  0
   -3.8100    0.0000    0.0000 N   0  0  0  0  0  0  0  0  0  0  0  0
   -2.3100    0.0000    0.0000 N   0  0  0  0  0  0  0  0  0  0  0  0
   -1.4300   -1.2100    0.0000 C   0  0  0  0  0  0  0  0  0  0  0  0
    0.0000   -0.7500    0.0000 C   0  0  2  0  0  0  0  0  0  0  0  0
    0.0000    0.7500    0.0000 C   0  0  1  0  0  0  0  0  0  0  0  0
    1.4300    1.2100    0.0000 C   0  0  0  0  0  0  0  0  0  0  0  0
    2.3100    0.0000    0.0000 C   0  0  0  0  0  0  0  0  0  0  0  0
    1.4300   -1.2100    0.0000 C   0  0  0  0  0  0  0  0  0  0  0  0
   -1.4300    1.2100    0.0000 C   0  0  0  0  0  0  0  0  0  0  0  0
   -8.3100    2.5981    0.0000 C   0  0  0  0  0  0  0  0  0  0  0  0
   -9.0602    1.2992    0.0000 C   0  0  0  0  0  0  0  0  0  0  0  0
  -10.5610    1.2999    0.0000 C   0  0  0  0  0  0  0  0  0  0  0  0
  -11.3117    2.5995    0.0000 C   0  0  0  0  0  0  0  0  0  0  0  0
  -10.5615    3.8984    0.0000 C   0  0  0  0  0  0  0  0  0  0  0  0
   -9.0606    3.8977    0.0000 C   0  0  0  0  0  0  0  0  0  0  0  0
  -12.8117    2.5995    0.0000 C   0  0  0  0  0  0  0  0  0  0  0  0
    1.8953   -2.6360    0.0000 O   0  0  0  0  0  0  0  0  0  0  0  0
  1  2  2  0  0  0  0
  1  3  2  0  0  0  0
  1  4  1  0  0  0  0
  4  5  1  0  0  0  0
  5  6  2  0  0  0  0
  5  7  1  0  0  0  0
  7  8  1  0  0  0  0
  8  9  1  0  0  0  0
 10  9  1  6  0  0  0
 10 11  1  0  0  0  0
 11 12  1  6  0  0  0
 12 13  1  0  0  0  0
 13 14  1  0  0  0  0
 10 14  1  0  0  0  0
 11 15  1  0  0  0  0
  8 15  1  0  0  0  0
  1 16  1  0  0  0  0
 16 17  2  0  0  0  0
 17 18  1  0  0  0  0
 18 19  2  0  0  0  0
 19 20  1  0  0  0  0
 20 21  2  0  0  0  0
 16 21  1  0  0  0  0
 19 22  1  0  0  0  0
 23 14  1  0  0  0  0
M  END
> <InChI>
InChI=1S/C15H21N3O4S/c1-10-2-5-12(6-3-10)23(21,22)17-15(20)16-18-8-11-4-7-14(19)13(11)9-18/h2-3,5-6,11,13-14,19H,4,7-9H2,1H3,(H2,16,17,20)/t11-,13+,14?/m0/s1

> <InChIKey>
VUUZEWXIRFGRFE-MKDGSZCOSA-N

> <SMILES>
S(=O)(=O)(NC(=O)NN1C[C@@H]2[C@@H](CCC2O)C1)C3=CC=C(C=C3)C

> <Synonyms>


> <PUBCHEM_CID>


> <Molecular_formula>
C15H21N3O4S

> <Major_Isotope_Mass>
339.1252771520001

> <ALogP>
1.0757

> <Lipinski_Violations>
0

> <Insecticide_Likeness_Violations>
1

> <Post_Em_Herbicide_Likeness_Violations>
1

> <Metabolite_ID>
BTM00008

> <Reaction>
Hydroxylation of alicyclic secondary carbon

> <Reaction_ID>
BTMR1067

> <Enzyme(s)>
CYP2B6
CYP2C9
CYP3A4

> <Biosystem>
HUMAN

> <Precursor_ID>
TEST0003_Gliclazide

> <Precursor_SMILES>
S(=O)(=O)(NC(=O)NN1C[C@@H]2[C@@H](CCC2)C1)C3=CC=C(C=C3)C

> <Precursor_InChI>
InChI=1S/C15H21N3O3S/c1-11-5-7-14(8-6-11)22(20,21)17-15(19)16-18-9-12-3-2-4-13(12)10-18/h5-8,12-13H,2-4,9-10H2,1H3,(H2,16,17,19)/t12-,13+

> <Precursor_InChIKey>
BOVGTQGAOIONJV-BETUJISGSA-N

> <Precursor_ALogP>
2.307000

> <Precursor_Major_Isotope_Mass>
323.1303

$$$$
BTM00009
  CDK     08072416462D

 23 25  0  0  0  0  0  0  0  0999 V2000
   -6.8100   -2.5981    0.0000 S   0  0  0  0  0  0  0  0  0  0  0  0
   -7.0705   -4.0753    0.0000 O   0  0  0  0  0  0  0  0  0  0  0  0
   -5.4005   -3.1111    0.0000 O   0  0  0  0  0  0  0  0  0  0  0  0
   -6.0600   -1.2990    0.0000 N   0  0  0  0  0  0  0  0  0  0  0  0
   -4.5600   -1.2990    0.0000 C   0  0  0  0  0  0  0  0  0  0  0  0
   -3.8100   -2.5981    0.0000 O   0  0  0  0  0  0  0  0  0  0  0  0
   -3.8100    0.0000    0.0000 N   0  0  0  0  0  0  0  0  0  0  0  0
   -2.3100    0.0000    0.0000 N   0  0  0  0  0  0  0  0  0  0  0  0
   -1.4300   -1.2100    0.0000 C   0  0  0  0  0  0  0  0  0  0  0  0
    0.0000   -0.7500    0.0000 C   0  0  0  0  0  0  0  0  0  0  0  0
    0.0000    0.7500    0.0000 C   0  0  0  0  0  0  0  0  0  0  0  0
    1.4300    1.2100    0.0000 C   0  0  0  0  0  0  0  0  0  0  0  0
    2.3100    0.0000    0.0000 C   0  0  0  0  0  0  0  0  0  0  0  0
    1.4300   -1.2100    0.0000 C   0  0  0  0  0  0  0  0  0  0  0  0
   -1.4300    1.2100    0.0000 C   0  0  0  0  0  0  0  0  0  0  0  0
   -1.8953    2.6360    0.0000 O   0  0  0  0  0  0  0  0  0  0  0  0
   -8.3100   -2.5981    0.0000 C   0  0  0  0  0  0  0  0  0  0  0  0
   -9.0602   -3.8970    0.0000 C   0  0  0  0  0  0  0  0  0  0  0  0
  -10.5610   -3.8963    0.0000 C   0  0  0  0  0  0  0  0  0  0  0  0
  -11.3117   -2.5966    0.0000 C   0  0  0  0  0  0  0  0  0  0  0  0
  -10.5615   -1.2977    0.0000 C   0  0  0  0  0  0  0  0  0  0  0  0
   -9.0606   -1.2984    0.0000 C   0  0  0  0  0  0  0  0  0  0  0  0
  -12.8117   -2.5966    0.0000 C   0  0  0  0  0  0  0  0  0  0  0  0
  1  2  2  0  0  0  0
  1  3  2  0  0  0  0
  1  4  1  0  0  0  0
  4  5  1  0  0  0  0
  5  6  2  0  0  0  0
  5  7  1  0  0  0  0
  7  8  1  0  0  0  0
  8  9  1  0  0  0  0
  9 10  1  0  0  0  0
 10 11  1  0  0  0  0
 11 12  1  0  0  0  0
 12 13  1  0  0  0  0
 13 14  1  0  0  0  0
 10 14  1  0  0  0  0
 11 15  1  0  0  0  0
  8 15  1  0  0  0  0
 15 16  1  0  0  0  0
  1 17  1  0  0  0  0
 17 18  2  0  0  0  0
 18 19  1  0  0  0  0
 19 20  2  0  0  0  0
 20 21  1  0  0  0  0
 21 22  2  0  0  0  0
 17 22  1  0  0  0  0
 20 23  1  0  0  0  0
M  END
> <InChI>
InChI=1S/C15H21N3O4S/c1-10-5-7-12(8-6-10)23(21,22)17-15(20)16-18-9-11-3-2-4-13(11)14(18)19/h5-8,11,13-14,19H,2-4,9H2,1H3,(H2,16,17,20)

> <InChIKey>
ASBOSFDUYXUJLV-UHFFFAOYSA-N

> <SMILES>
S(=O)(=O)(NC(=O)NN1CC2C(CCC2)C1O)C3=CC=C(C=C3)C

> <Synonyms>


> <PUBCHEM_CID>


> <Molecular_formula>
C15H21N3O4S

> <Major_Isotope_Mass>
339.125277152

> <ALogP>
1.8378999999999999

> <Lipinski_Violations>
0

> <Insecticide_Likeness_Violations>
1

> <Post_Em_Herbicide_Likeness_Violations>
1

> <Metabolite_ID>
BTM00009

> <Reaction>
Hydroxylation from CyProduct

> <Reaction_ID>
BTMR1328

> <Enzyme(s)>
CYP3A4

> <Biosystem>
HUMAN

> <Precursor_ID>
TEST0003_Gliclazide

> <Precursor_SMILES>
S(=O)(=O)(NC(=O)NN1C[C@@H]2[C@@H](CCC2)C1)C3=CC=C(C=C3)C

> <Precursor_InChI>
InChI=1S/C15H21N3O3S/c1-11-5-7-14(8-6-11)22(20,21)17-15(19)16-18-9-12-3-2-4-13(12)10-18/h5-8,12-13H,2-4,9-10H2,1H3,(H2,16,17,19)/t12-,13+

> <Precursor_InChIKey>
BOVGTQGAOIONJV-BETUJISGSA-N

> <Precursor_ALogP>
2.307000

> <Precursor_Major_Isotope_Mass>
323.1303

$$$$
BTM00010
  CDK     08072416462D

 23 25  0  0  0  0  0  0  0  0999 V2000
   -6.8100   -2.5981    0.0000 S   0  0  0  0  0  0  0  0  0  0  0  0
   -7.0705   -4.0753    0.0000 O   0  0  0  0  0  0  0  0  0  0  0  0
   -5.4005   -3.1111    0.0000 O   0  0  0  0  0  0  0  0  0  0  0  0
   -6.0600   -1.2990    0.0000 N   0  0  0  0  0  0  0  0  0  0  0  0
   -4.5600   -1.2990    0.0000 C   0  0  0  0  0  0  0  0  0  0  0  0
   -3.8100   -2.5981    0.0000 O   0  0  0  0  0  0  0  0  0  0  0  0
   -3.8100    0.0000    0.0000 N   0  0  0  0  0  0  0  0  0  0  0  0
   -2.3100    0.0000    0.0000 N   0  0  0  0  0  0  0  0  0  0  0  0
   -1.4300   -1.2100    0.0000 C   0  0  0  0  0  0  0  0  0  0  0  0
    0.0000   -0.7500    0.0000 C   0  0  0  0  0  0  0  0  0  0  0  0
    0.0000    0.7500    0.0000 C   0  0  0  0  0  0  0  0  0  0  0  0
    1.4300    1.2100    0.0000 C   0  0  0  0  0  0  0  0  0  0  0  0
    2.3100    0.0000    0.0000 C   0  0  0  0  0  0  0  0  0  0  0  0
    1.4300   -1.2100    0.0000 C   0  0  0  0  0  0  0  0  0  0  0  0
   -1.4300    1.2100    0.0000 C   0  0  0  0  0  0  0  0  0  0  0  0
   -8.3100   -2.5981    0.0000 C   0  0  0  0  0  0  0  0  0  0  0  0
   -9.0602   -3.8970    0.0000 C   0  0  0  0  0  0  0  0  0  0  0  0
  -10.5610   -3.8963    0.0000 C   0  0  0  0  0  0  0  0  0  0  0  0
  -11.3117   -2.5966    0.0000 C   0  0  0  0  0  0  0  0  0  0  0  0
  -10.5615   -1.2977    0.0000 C   0  0  0  0  0  0  0  0  0  0  0  0
   -9.0606   -1.2984    0.0000 C   0  0  0  0  0  0  0  0  0  0  0  0
  -12.8117   -2.5966    0.0000 C   0  0  0  0  0  0  0  0  0  0  0  0
  -13.5617   -3.8957    0.0000 O   0  0  0  0  0  0  0  0  0  0  0  0
  1  2  2  0  0  0  0
  1  3  2  0  0  0  0
  1  4  1  0  0  0  0
  4  5  1  0  0  0  0
  5  6  2  0  0  0  0
  5  7  1  0  0  0  0
  7  8  1  0  0  0  0
  8  9  1  0  0  0  0
  9 10  1  0  0  0  0
 10 11  1  0  0  0  0
 11 12  1  0  0  0  0
 12 13  1  0  0  0  0
 13 14  1  0  0  0  0
 10 14  1  0  0  0  0
 11 15  1  0  0  0  0
  8 15  1  0  0  0  0
  1 16  1  0  0  0  0
 16 17  2  0  0  0  0
 17 18  1  0  0  0  0
 18 19  2  0  0  0  0
 19 20  1  0  0  0  0
 20 21  2  0  0  0  0
 16 21  1  0  0  0  0
 19 22  1  0  0  0  0
 22 23  1  0  0  0  0
M  END
> <InChI>
InChI=1S/C15H21N3O4S/c19-10-11-4-6-14(7-5-11)23(21,22)17-15(20)16-18-8-12-2-1-3-13(12)9-18/h4-7,12-13,19H,1-3,8-10H2,(H2,16,17,20)

> <InChIKey>
IHCHVBQHVIUSTM-UHFFFAOYSA-N

> <SMILES>
S(=O)(=O)(NC(=O)NN1CC2C(CCC2)C1)C3=CC=C(C=C3)CO

> <Synonyms>


> <PUBCHEM_CID>


> <Molecular_formula>
C15H21N3O4S

> <Major_Isotope_Mass>
339.12527715199997

> <ALogP>
1.2163000000000015

> <Lipinski_Violations>
0

> <Insecticide_Likeness_Violations>
1

> <Post_Em_Herbicide_Likeness_Violations>
1

> <Metabolite_ID>
BTM00010

> <Reaction>
Hydroxylation from CyProduct

> <Reaction_ID>
BTMR1328

> <Enzyme(s)>
CYP1A2
CYP2C8
CYP2C9
CYP2C19
CYP2D6
CYP3A4

> <Biosystem>
HUMAN

> <Precursor_ID>
TEST0003_Gliclazide

> <Precursor_SMILES>
S(=O)(=O)(NC(=O)NN1C[C@@H]2[C@@H](CCC2)C1)C3=CC=C(C=C3)C

> <Precursor_InChI>
InChI=1S/C15H21N3O3S/c1-11-5-7-14(8-6-11)22(20,21)17-15(19)16-18-9-12-3-2-4-13(12)10-18/h5-8,12-13H,2-4,9-10H2,1H3,(H2,16,17,19)/t12-,13+

> <Precursor_InChIKey>
BOVGTQGAOIONJV-BETUJISGSA-N

> <Precursor_ALogP>
2.307000

> <Precursor_Major_Isotope_Mass>
323.1303

$$$$
