BTM00001
  CDK     08072416552D

 19 20  0  0  1  0  0  0  0  0999 V2000
   -6.5084    0.8691    0.0000 O   0  0  0  0  0  0  0  0  0  0  0  0
   -6.1929    2.3355    0.0000 C   0  0  0  0  0  0  0  0  0  0  0  0
   -4.8171    2.9384    0.0000 C   0  0  2  0  0  0  0  0  0  0  0  0
   -4.9829    4.4313    0.0000 C   0  0  0  0  0  0  0  0  0  0  0  0
   -6.4426    4.7429    0.0000 C   0  0  0  0  0  0  0  0  0  0  0  0
   -7.1926    3.4439    0.0000 C   0  0  0  0  0  0  0  0  0  0  0  0
   -3.5181    2.1884    0.0000 C   0  0  0  0  0  0  0  0  0  0  0  0
   -2.2190    2.9384    0.0000 C   0  0  0  0  0  0  0  0  0  0  0  0
   -2.2188    4.4393    0.0000 C   0  0  0  0  0  0  0  0  0  0  0  0
   -0.9194    5.1903    0.0000 C   0  0  0  0  0  0  0  0  0  0  0  0
    0.3798    4.4405    0.0000 C   0  0  0  0  0  0  0  0  0  0  0  0
    0.3795    2.9397    0.0000 C   0  0  0  0  0  0  0  0  0  0  0  0
   -0.9199    2.1886    0.0000 C   0  0  0  0  0  0  0  0  0  0  0  0
    1.6788    5.1905    0.0000 C   0  0  2  0  0  0  0  0  0  0  0  0
    1.6788    6.6905    0.0000 C   0  0  0  0  0  0  0  0  0  0  0  0
    2.9778    4.4405    0.0000 C   0  0  0  0  0  0  0  0  0  0  0  0
    4.2769    5.1905    0.0000 O   0  0  0  0  0  0  0  0  0  0  0  0
    2.9778    2.9405    0.0000 O   0  0  0  0  0  0  0  0  0  0  0  0
   -3.5181    0.6884    0.0000 O   0  0  0  0  0  0  0  0  0  0  0  0
  1  2  2  0  0  0  0
  2  3  1  0  0  0  0
  3  4  1  6  0  0  0
  4  5  1  0  0  0  0
  5  6  1  0  0  0  0
  2  6  1  0  0  0  0
  3  7  1  0  0  0  0
  7  8  1  0  0  0  0
  8  9  2  0  0  0  0
  9 10  1  0  0  0  0
 10 11  2  0  0  0  0
 11 12  1  0  0  0  0
 12 13  2  0  0  0  0
  8 13  1  0  0  0  0
 14 11  1  0  0  0  0
 14 15  1  6  0  0  0
 14 16  1  0  0  0  0
 16 17  1  0  0  0  0
 16 18  2  0  0  0  0
 19  7  1  0  0  0  0
M  END
> <InChI>
InChI=1S/C15H18O4/c1-9(15(18)19)10-5-7-11(8-6-10)14(17)12-3-2-4-13(12)16/h5-9,12,14,17H,2-4H2,1H3,(H,18,19)/t9-,12-,14?/m0/s1

> <InChIKey>
JXNITCRPYUQYJC-LLBSRUCJSA-N

> <SMILES>
O=C1[C@H](CCC1)C(C2=CC=C(C=C2)[C@H](C)C(O)=O)O

> <Synonyms>


> <PUBCHEM_CID>


> <Molecular_formula>
C15H18O4

> <Major_Isotope_Mass>
262.120509056

> <ALogP>
1.8039

> <Lipinski_Violations>
0

> <Insecticide_Likeness_Violations>
0

> <Post_Em_Herbicide_Likeness_Violations>
0

> <Metabolite_ID>
BTM00001

> <Reaction>
Hydroxylation of non-terminal aliphatic carbon adjacent to aromatic ring

> <Reaction_ID>
BTMR1077

> <Enzyme(s)>
CYP1A2
CYP2C8
CYP2C9
CYP2D6
CYP3A4

> <Biosystem>
HUMAN

> <Precursor_ID>
TEST0061_Loxoprofen

> <Precursor_SMILES>
O=C1[C@H](CCC1)CC2=CC=C(C=C2)[C@H](C)C(O)=O

> <Precursor_InChI>
InChI=1S/C15H18O3/c1-10(15(17)18)12-7-5-11(6-8-12)9-13-3-2-4-14(13)16/h5-8,10,13H,2-4,9H2,1H3,(H,17,18)/t10-,13+/m0/s1

> <Precursor_InChIKey>
YMBXTVYHTMGZDW-GXFFZTMASA-N

> <Precursor_ALogP>
2.770800

> <Precursor_Major_Isotope_Mass>
246.1255

$$$$
BTM00002
  CDK     08072416552D

 19 20  0  0  1  0  0  0  0  0999 V2000
    2.6042    6.2076    0.0000 O   0  0  0  0  0  0  0  0  0  0  0  0
    2.2887    4.7412    0.0000 C   0  0  0  0  0  0  0  0  0  0  0  0
    0.9129    4.1383    0.0000 C   0  0  2  0  0  0  0  0  0  0  0  0
    1.0787    2.6454    0.0000 C   0  0  0  0  0  0  0  0  0  0  0  0
    2.5385    2.3338    0.0000 C   0  0  0  0  0  0  0  0  0  0  0  0
    3.2885    3.6328    0.0000 C   0  0  0  0  0  0  0  0  0  0  0  0
   -0.3861    4.8883    0.0000 C   0  0  0  0  0  0  0  0  0  0  0  0
   -1.6851    4.1383    0.0000 C   0  0  0  0  0  0  0  0  0  0  0  0
   -1.6854    2.6375    0.0000 C   0  0  0  0  0  0  0  0  0  0  0  0
   -2.9848    1.8864    0.0000 C   0  0  0  0  0  0  0  0  0  0  0  0
   -4.2839    2.6362    0.0000 C   0  0  0  0  0  0  0  0  0  0  0  0
   -4.2837    4.1371    0.0000 C   0  0  0  0  0  0  0  0  0  0  0  0
   -2.9843    4.8881    0.0000 C   0  0  0  0  0  0  0  0  0  0  0  0
   -5.5830    1.8862    0.0000 C   0  0  0  0  0  0  0  0  0  0  0  0
   -6.5471    0.7372    0.0000 C   0  0  0  0  0  0  0  0  0  0  0  0
   -6.8820    2.6362    0.0000 C   0  0  0  0  0  0  0  0  0  0  0  0
   -8.1810    1.8862    0.0000 O   0  0  0  0  0  0  0  0  0  0  0  0
   -6.8820    4.1362    0.0000 O   0  0  0  0  0  0  0  0  0  0  0  0
   -4.6188    0.7372    0.0000 O   0  0  0  0  0  0  0  0  0  0  0  0
  1  2  2  0  0  0  0
  2  3  1  0  0  0  0
  3  4  1  0  0  0  0
  4  5  1  0  0  0  0
  5  6  1  0  0  0  0
  2  6  1  0  0  0  0
  3  7  1  6  0  0  0
  7  8  1  0  0  0  0
  8  9  2  0  0  0  0
  9 10  1  0  0  0  0
 10 11  2  0  0  0  0
 11 12  1  0  0  0  0
 12 13  2  0  0  0  0
  8 13  1  0  0  0  0
 14 11  1  0  0  0  0
 14 15  1  0  0  0  0
 14 16  1  0  0  0  0
 16 17  1  0  0  0  0
 16 18  2  0  0  0  0
 19 14  1  0  0  0  0
M  END
> <InChI>
InChI=1S/C15H18O4/c1-15(19,14(17)18)12-7-5-10(6-8-12)9-11-3-2-4-13(11)16/h5-8,11,19H,2-4,9H2,1H3,(H,17,18)/t11-,15?/m1/s1

> <InChIKey>
OTNLXJADUAXZBH-ZRKZCGFPSA-N

> <SMILES>
O=C1[C@H](CCC1)CC2=CC=C(C=C2)C(C)(C(O)=O)O

> <Synonyms>


> <PUBCHEM_CID>


> <Molecular_formula>
C15H18O4

> <Major_Isotope_Mass>
262.120509056

> <ALogP>
1.9677999999999998

> <Lipinski_Violations>
0

> <Insecticide_Likeness_Violations>
0

> <Post_Em_Herbicide_Likeness_Violations>
0

> <Metabolite_ID>
BTM00002

> <Reaction>
Hydroxylation of non-terminal aliphatic carbon adjacent to aromatic ring

> <Reaction_ID>
BTMR1077

> <Enzyme(s)>
CYP1A2
CYP2C8
CYP2C9
CYP2D6
CYP3A4

> <Biosystem>
HUMAN

> <Precursor_ID>
TEST0061_Loxoprofen

> <Precursor_SMILES>
O=C1[C@H](CCC1)CC2=CC=C(C=C2)[C@H](C)C(O)=O

> <Precursor_InChI>
InChI=1S/C15H18O3/c1-10(15(17)18)12-7-5-11(6-8-12)9-13-3-2-4-14(13)16/h5-8,10,13H,2-4,9H2,1H3,(H,17,18)/t10-,13+/m0/s1

> <Precursor_InChIKey>
YMBXTVYHTMGZDW-GXFFZTMASA-N

> <Precursor_ALogP>
2.770800

> <Precursor_Major_Isotope_Mass>
246.1255

$$$$
BTM00003
  CDK     08072416552D

 19 20  0  0  1  0  0  0  0  0999 V2000
    2.3240    6.6930    0.0000 O   0  0  0  0  0  0  0  0  0  0  0  0
    2.0085    5.2266    0.0000 C   0  0  0  0  0  0  0  0  0  0  0  0
    0.6327    4.6237    0.0000 C   0  0  2  0  0  0  0  0  0  0  0  0
    0.7985    3.1308    0.0000 C   0  0  0  0  0  0  0  0  0  0  0  0
    2.2582    2.8191    0.0000 C   0  0  0  0  0  0  0  0  0  0  0  0
    3.0082    4.1182    0.0000 C   0  0  0  0  0  0  0  0  0  0  0  0
   -0.6663    5.3737    0.0000 C   0  0  0  0  0  0  0  0  0  0  0  0
   -1.9653    4.6237    0.0000 C   0  0  0  0  0  0  0  0  0  0  0  0
   -1.9656    3.1228    0.0000 C   0  0  0  0  0  0  0  0  0  0  0  0
   -3.2650    2.3718    0.0000 C   0  0  0  0  0  0  0  0  0  0  0  0
   -4.5641    3.1216    0.0000 C   0  0  0  0  0  0  0  0  0  0  0  0
   -4.5639    4.6224    0.0000 C   0  0  0  0  0  0  0  0  0  0  0  0
   -3.2645    5.3735    0.0000 C   0  0  0  0  0  0  0  0  0  0  0  0
   -5.8632    2.3716    0.0000 C   0  0  2  0  0  0  0  0  0  0  0  0
   -7.1622    3.1216    0.0000 C   0  0  0  0  0  0  0  0  0  0  0  0
   -5.8632    0.8716    0.0000 C   0  0  0  0  0  0  0  0  0  0  0  0
   -7.1622    0.1216    0.0000 O   0  0  0  0  0  0  0  0  0  0  0  0
   -4.5641    0.1216    0.0000 O   0  0  0  0  0  0  0  0  0  0  0  0
   -8.4613    2.3716    0.0000 O   0  0  0  0  0  0  0  0  0  0  0  0
  1  2  2  0  0  0  0
  2  3  1  0  0  0  0
  3  4  1  0  0  0  0
  4  5  1  0  0  0  0
  5  6  1  0  0  0  0
  2  6  1  0  0  0  0
  3  7  1  6  0  0  0
  7  8  1  0  0  0  0
  8  9  2  0  0  0  0
  9 10  1  0  0  0  0
 10 11  2  0  0  0  0
 11 12  1  0  0  0  0
 12 13  2  0  0  0  0
  8 13  1  0  0  0  0
 14 11  1  0  0  0  0
 14 15  1  1  0  0  0
 14 16  1  0  0  0  0
 16 17  1  0  0  0  0
 16 18  2  0  0  0  0
 19 15  1  0  0  0  0
M  END
> <InChI>
InChI=1S/C15H18O4/c16-9-13(15(18)19)11-6-4-10(5-7-11)8-12-2-1-3-14(12)17/h4-7,12-13,16H,1-3,8-9H2,(H,18,19)/t12-,13+/m1/s1

> <InChIKey>
LTRCPNHBJLUJRF-OLZOCXBDSA-N

> <SMILES>
O=C1[C@H](CCC1)CC2=CC=C(C=C2)[C@H](CO)C(O)=O

> <Synonyms>


> <PUBCHEM_CID>


> <Molecular_formula>
C15H18O4

> <Major_Isotope_Mass>
262.120509056

> <ALogP>
1.6801000000000008

> <Lipinski_Violations>
0

> <Insecticide_Likeness_Violations>
0

> <Post_Em_Herbicide_Likeness_Violations>
0

> <Metabolite_ID>
BTM00003

> <Reaction>
Hydroxylation of terminal methyl

> <Reaction_ID>
BTMR1061

> <Enzyme(s)>
CYP1A2
CYP2A6
CYP2B6
CYP2C8
CYP2C9
CYP2C19
CYP2D6
CYP2E1
CYP3A4

> <Biosystem>
HUMAN

> <Precursor_ID>
TEST0061_Loxoprofen

> <Precursor_SMILES>
O=C1[C@H](CCC1)CC2=CC=C(C=C2)[C@H](C)C(O)=O

> <Precursor_InChI>
InChI=1S/C15H18O3/c1-10(15(17)18)12-7-5-11(6-8-12)9-13-3-2-4-14(13)16/h5-8,10,13H,2-4,9H2,1H3,(H,17,18)/t10-,13+/m0/s1

> <Precursor_InChIKey>
YMBXTVYHTMGZDW-GXFFZTMASA-N

> <Precursor_ALogP>
2.770800

> <Precursor_Major_Isotope_Mass>
246.1255

$$$$
BTM00004
  CDK     08072416552D

 18 19  0  0  1  0  0  0  0  0999 V2000
   -6.5084    0.8691    0.0000 O   0  0  0  0  0  0  0  0  0  0  0  0
   -6.1929    2.3355    0.0000 C   0  0  0  0  0  0  0  0  0  0  0  0
   -4.8171    2.9384    0.0000 C   0  0  2  0  0  0  0  0  0  0  0  0
   -4.9829    4.4313    0.0000 C   0  0  0  0  0  0  0  0  0  0  0  0
   -6.4426    4.7429    0.0000 C   0  0  0  0  0  0  0  0  0  0  0  0
   -7.1926    3.4439    0.0000 C   0  0  0  0  0  0  0  0  0  0  0  0
   -3.5181    2.1884    0.0000 C   0  0  0  0  0  0  0  0  0  0  0  0
   -2.2190    2.9384    0.0000 C   0  0  0  0  0  0  0  0  0  0  0  0
   -2.2188    4.4393    0.0000 C   0  0  0  0  0  0  0  0  0  0  0  0
   -0.9194    5.1903    0.0000 C   0  0  0  0  0  0  0  0  0  0  0  0
    0.3798    4.4405    0.0000 C   0  0  0  0  0  0  0  0  0  0  0  0
    0.3795    2.9397    0.0000 C   0  0  0  0  0  0  0  0  0  0  0  0
   -0.9199    2.1886    0.0000 C   0  0  0  0  0  0  0  0  0  0  0  0
    1.6788    5.1905    0.0000 C   0  0  0  0  0  0  0  0  0  0  0  0
    1.6788    6.6905    0.0000 C   0  0  0  0  0  0  0  0  0  0  0  0
    2.9778    4.4405    0.0000 C   0  0  0  0  0  0  0  0  0  0  0  0
    4.2769    5.1905    0.0000 O   0  0  0  0  0  0  0  0  0  0  0  0
    2.9778    2.9405    0.0000 O   0  0  0  0  0  0  0  0  0  0  0  0
  1  2  2  0  0  0  0
  2  3  1  0  0  0  0
  3  4  1  0  0  0  0
  4  5  1  0  0  0  0
  5  6  1  0  0  0  0
  2  6  1  0  0  0  0
  3  7  1  6  0  0  0
  7  8  1  0  0  0  0
  8  9  2  0  0  0  0
  9 10  1  0  0  0  0
 10 11  2  0  0  0  0
 11 12  1  0  0  0  0
 12 13  2  0  0  0  0
  8 13  1  0  0  0  0
 14 11  1  0  0  0  0
 14 15  2  0  0  0  0
 14 16  1  0  0  0  0
 16 17  1  0  0  0  0
 16 18  2  0  0  0  0
M  END
> <InChI>
InChI=1S/C15H16O3/c1-10(15(17)18)12-7-5-11(6-8-12)9-13-3-2-4-14(13)16/h5-8,13H,1-4,9H2,(H,17,18)/t13-/m1/s1

> <InChIKey>
IVTOTPCDIDMAOC-CYBMUJFWSA-N

> <SMILES>
O=C1[C@H](CCC1)CC2=CC=C(C=C2)C(=C)C(O)=O

> <Synonyms>


> <PUBCHEM_CID>


> <Molecular_formula>
C15H16O3

> <Major_Isotope_Mass>
244.10994437199997

> <ALogP>
2.7854

> <Lipinski_Violations>
0

> <Insecticide_Likeness_Violations>
0

> <Post_Em_Herbicide_Likeness_Violations>
0

> <Metabolite_ID>
BTM00004

> <Reaction>
Terminal desaturation

> <Reaction_ID>
BTMR1190

> <Enzyme(s)>
CYP1A2
CYP2A6
CYP2C9
CYP2D6
CYP3A4

> <Biosystem>
HUMAN

> <Precursor_ID>
TEST0061_Loxoprofen

> <Precursor_SMILES>
O=C1[C@H](CCC1)CC2=CC=C(C=C2)[C@H](C)C(O)=O

> <Precursor_InChI>
InChI=1S/C15H18O3/c1-10(15(17)18)12-7-5-11(6-8-12)9-13-3-2-4-14(13)16/h5-8,10,13H,2-4,9H2,1H3,(H,17,18)/t10-,13+/m0/s1

> <Precursor_InChIKey>
YMBXTVYHTMGZDW-GXFFZTMASA-N

> <Precursor_ALogP>
2.770800

> <Precursor_Major_Isotope_Mass>
246.1255

$$$$
BTM00005
  CDK     08072416552D

 19 20  0  0  1  0  0  0  0  0999 V2000
   -3.1906    1.5667    0.0000 O   0  0  0  0  0  0  0  0  0  0  0  0
   -3.9374    2.8676    0.0000 C   0  0  0  0  0  0  0  0  0  0  0  0
   -3.3184    4.2362    0.0000 C   0  0  0  0  0  0  0  0  0  0  0  0
   -4.4405    5.2347    0.0000 C   0  0  0  0  0  0  0  0  0  0  0  0
   -5.7339    4.4895    0.0000 C   0  0  0  0  0  0  0  0  0  0  0  0
   -5.4220    3.0223    0.0000 C   0  0  0  0  0  0  0  0  0  0  0  0
   -2.0208    3.4836    0.0000 C   0  0  0  0  0  0  0  0  0  0  0  0
   -0.7203    4.2311    0.0000 C   0  0  0  0  0  0  0  0  0  0  0  0
   -0.7172    5.7319    0.0000 C   0  0  0  0  0  0  0  0  0  0  0  0
    0.5837    6.4804    0.0000 C   0  0  0  0  0  0  0  0  0  0  0  0
    1.8814    5.7281    0.0000 C   0  0  0  0  0  0  0  0  0  0  0  0
    1.8782    4.2273    0.0000 C   0  0  0  0  0  0  0  0  0  0  0  0
    0.5773    3.4788    0.0000 C   0  0  0  0  0  0  0  0  0  0  0  0
    3.1819    6.4756    0.0000 C   0  0  2  0  0  0  0  0  0  0  0  0
    3.1848    7.9756    0.0000 C   0  0  0  0  0  0  0  0  0  0  0  0
    4.4795    5.7230    0.0000 C   0  0  0  0  0  0  0  0  0  0  0  0
    5.7800    6.4705    0.0000 O   0  0  0  0  0  0  0  0  0  0  0  0
    4.4765    4.2230    0.0000 O   0  0  0  0  0  0  0  0  0  0  0  0
   -2.4391    5.4514    0.0000 O   0  0  0  0  0  0  0  0  0  0  0  0
  1  2  2  0  0  0  0
  2  3  1  0  0  0  0
  3  4  1  0  0  0  0
  4  5  1  0  0  0  0
  5  6  1  0  0  0  0
  2  6  1  0  0  0  0
  3  7  1  0  0  0  0
  7  8  1  0  0  0  0
  8  9  2  0  0  0  0
  9 10  1  0  0  0  0
 10 11  2  0  0  0  0
 11 12  1  0  0  0  0
 12 13  2  0  0  0  0
  8 13  1  0  0  0  0
 14 11  1  0  0  0  0
 14 15  1  6  0  0  0
 14 16  1  0  0  0  0
 16 17  1  0  0  0  0
 16 18  2  0  0  0  0
 19  3  1  0  0  0  0
M  END
> <InChI>
InChI=1S/C15H18O4/c1-10(14(17)18)12-6-4-11(5-7-12)9-15(19)8-2-3-13(15)16/h4-7,10,19H,2-3,8-9H2,1H3,(H,17,18)/t10-,15?/m0/s1

> <InChIKey>
UTJVOBDAGCYQID-MYHCZTBNSA-N

> <SMILES>
O=C1C(CCC1)(CC2=CC=C(C=C2)[C@H](C)C(O)=O)O

> <Synonyms>


> <PUBCHEM_CID>


> <Molecular_formula>
C15H18O4

> <Major_Isotope_Mass>
262.120509056

> <ALogP>
1.9002999999999992

> <Lipinski_Violations>
0

> <Insecticide_Likeness_Violations>
0

> <Post_Em_Herbicide_Likeness_Violations>
0

> <Metabolite_ID>
BTM00005

> <Reaction>
alpha-Hydroxylation of carbonyl group

> <Reaction_ID>
BTMR1054

> <Enzyme(s)>
CYP1A2
CYP2A6
CYP2B6
CYP2C8
CYP2C9
CYP2C19
CYP2D6
CYP3A4

> <Biosystem>
HUMAN

> <Precursor_ID>
TEST0061_Loxoprofen

> <Precursor_SMILES>
O=C1[C@H](CCC1)CC2=CC=C(C=C2)[C@H](C)C(O)=O

> <Precursor_InChI>
InChI=1S/C15H18O3/c1-10(15(17)18)12-7-5-11(6-8-12)9-13-3-2-4-14(13)16/h5-8,10,13H,2-4,9H2,1H3,(H,17,18)/t10-,13+/m0/s1

> <Precursor_InChIKey>
YMBXTVYHTMGZDW-GXFFZTMASA-N

> <Precursor_ALogP>
2.770800

> <Precursor_Major_Isotope_Mass>
246.1255

$$$$
BTM00002
  CDK     08072416552D

 19 20  0  0  1  0  0  0  0  0999 V2000
    2.6042    6.2076    0.0000 O   0  0  0  0  0  0  0  0  0  0  0  0
    2.2887    4.7412    0.0000 C   0  0  0  0  0  0  0  0  0  0  0  0
    0.9129    4.1383    0.0000 C   0  0  2  0  0  0  0  0  0  0  0  0
    1.0787    2.6454    0.0000 C   0  0  0  0  0  0  0  0  0  0  0  0
    2.5385    2.3338    0.0000 C   0  0  0  0  0  0  0  0  0  0  0  0
    3.2885    3.6328    0.0000 C   0  0  0  0  0  0  0  0  0  0  0  0
   -0.3861    4.8883    0.0000 C   0  0  0  0  0  0  0  0  0  0  0  0
   -1.6851    4.1383    0.0000 C   0  0  0  0  0  0  0  0  0  0  0  0
   -1.6854    2.6375    0.0000 C   0  0  0  0  0  0  0  0  0  0  0  0
   -2.9848    1.8864    0.0000 C   0  0  0  0  0  0  0  0  0  0  0  0
   -4.2839    2.6362    0.0000 C   0  0  0  0  0  0  0  0  0  0  0  0
   -4.2837    4.1371    0.0000 C   0  0  0  0  0  0  0  0  0  0  0  0
   -2.9843    4.8881    0.0000 C   0  0  0  0  0  0  0  0  0  0  0  0
   -5.5830    1.8862    0.0000 C   0  0  0  0  0  0  0  0  0  0  0  0
   -6.5471    0.7372    0.0000 C   0  0  0  0  0  0  0  0  0  0  0  0
   -6.8820    2.6362    0.0000 C   0  0  0  0  0  0  0  0  0  0  0  0
   -8.1810    1.8862    0.0000 O   0  0  0  0  0  0  0  0  0  0  0  0
   -6.8820    4.1362    0.0000 O   0  0  0  0  0  0  0  0  0  0  0  0
   -4.6188    0.7372    0.0000 O   0  0  0  0  0  0  0  0  0  0  0  0
  1  2  2  0  0  0  0
  2  3  1  0  0  0  0
  3  4  1  0  0  0  0
  4  5  1  0  0  0  0
  5  6  1  0  0  0  0
  2  6  1  0  0  0  0
  3  7  1  6  0  0  0
  7  8  1  0  0  0  0
  8  9  2  0  0  0  0
  9 10  1  0  0  0  0
 10 11  2  0  0  0  0
 11 12  1  0  0  0  0
 12 13  2  0  0  0  0
  8 13  1  0  0  0  0
 14 11  1  0  0  0  0
 14 15  1  0  0  0  0
 14 16  1  0  0  0  0
 16 17  1  0  0  0  0
 16 18  2  0  0  0  0
 19 14  1  0  0  0  0
M  END
> <InChI>
InChI=1S/C15H18O4/c1-15(19,14(17)18)12-7-5-10(6-8-12)9-11-3-2-4-13(11)16/h5-8,11,19H,2-4,9H2,1H3,(H,17,18)/t11-,15?/m1/s1

> <InChIKey>
OTNLXJADUAXZBH-ZRKZCGFPSA-N

> <SMILES>
O=C1[C@H](CCC1)CC2=CC=C(C=C2)C(C)(C(O)=O)O

> <Synonyms>


> <PUBCHEM_CID>


> <Molecular_formula>
C15H18O4

> <Major_Isotope_Mass>
262.120509056

> <ALogP>
1.9677999999999998

> <Lipinski_Violations>
0

> <Insecticide_Likeness_Violations>
0

> <Post_Em_Herbicide_Likeness_Violations>
0

> <Metabolite_ID>
BTM00002

> <Reaction>
alpha-Hydroxylation of carbonyl group

> <Reaction_ID>
BTMR1054

> <Enzyme(s)>
CYP1A2
CYP2A6
CYP2B6
CYP2C8
CYP2C9
CYP2C19
CYP2D6
CYP3A4

> <Biosystem>
HUMAN

> <Precursor_ID>
TEST0061_Loxoprofen

> <Precursor_SMILES>
O=C1[C@H](CCC1)CC2=CC=C(C=C2)[C@H](C)C(O)=O

> <Precursor_InChI>
InChI=1S/C15H18O3/c1-10(15(17)18)12-7-5-11(6-8-12)9-13-3-2-4-14(13)16/h5-8,10,13H,2-4,9H2,1H3,(H,17,18)/t10-,13+/m0/s1

> <Precursor_InChIKey>
YMBXTVYHTMGZDW-GXFFZTMASA-N

> <Precursor_ALogP>
2.770800

> <Precursor_Major_Isotope_Mass>
246.1255

$$$$
BTM00006
  CDK     08072416552D

 19 20  0  0  1  0  0  0  0  0999 V2000
    2.1235    5.8272    0.0000 O   0  0  0  0  0  0  0  0  0  0  0  0
    1.8080    4.3608    0.0000 C   0  0  0  0  0  0  0  0  0  0  0  0
    0.4322    3.7579    0.0000 C   0  0  2  0  0  0  0  0  0  0  0  0
    0.5980    2.2650    0.0000 C   0  0  0  0  0  0  0  0  0  0  0  0
    2.0577    1.9534    0.0000 C   0  0  0  0  0  0  0  0  0  0  0  0
    2.8077    3.2524    0.0000 C   0  0  0  0  0  0  0  0  0  0  0  0
   -0.8669    4.5079    0.0000 C   0  0  0  0  0  0  0  0  0  0  0  0
   -2.1659    3.7579    0.0000 C   0  0  0  0  0  0  0  0  0  0  0  0
   -2.1661    2.2570    0.0000 C   0  0  0  0  0  0  0  0  0  0  0  0
   -3.4655    1.5060    0.0000 C   0  0  0  0  0  0  0  0  0  0  0  0
   -4.7647    2.2558    0.0000 C   0  0  0  0  0  0  0  0  0  0  0  0
   -4.7644    3.7566    0.0000 C   0  0  0  0  0  0  0  0  0  0  0  0
   -3.4650    4.5077    0.0000 C   0  0  0  0  0  0  0  0  0  0  0  0
   -6.0637    1.5058    0.0000 C   0  0  2  0  0  0  0  0  0  0  0  0
   -6.0637    0.0058    0.0000 C   0  0  0  0  0  0  0  0  0  0  0  0
   -7.3628    2.2558    0.0000 C   0  0  0  0  0  0  0  0  0  0  0  0
   -8.6618    1.5058    0.0000 O   0  0  0  0  0  0  0  0  0  0  0  0
   -7.3628    3.7558    0.0000 O   0  0  0  0  0  0  0  0  0  0  0  0
    4.2994    3.4098    0.0000 O   0  0  0  0  0  0  0  0  0  0  0  0
  1  2  2  0  0  0  0
  2  3  1  0  0  0  0
  3  4  1  0  0  0  0
  4  5  1  0  0  0  0
  5  6  1  0  0  0  0
  2  6  1  0  0  0  0
  3  7  1  6  0  0  0
  7  8  1  0  0  0  0
  8  9  2  0  0  0  0
  9 10  1  0  0  0  0
 10 11  2  0  0  0  0
 11 12  1  0  0  0  0
 12 13  2  0  0  0  0
  8 13  1  0  0  0  0
 14 11  1  0  0  0  0
 14 15  1  6  0  0  0
 14 16  1  0  0  0  0
 16 17  1  0  0  0  0
 16 18  2  0  0  0  0
 19  6  1  0  0  0  0
M  END
> <InChI>
InChI=1S/C15H18O4/c1-9(15(18)19)11-4-2-10(3-5-11)8-12-6-7-13(16)14(12)17/h2-5,9,12-13,16H,6-8H2,1H3,(H,18,19)/t9-,12+,13?/m0/s1

> <InChIKey>
JICDEAPJVSJYTK-XAWKZAOJSA-N

> <SMILES>
O=C1[C@H](CCC1O)CC2=CC=C(C=C2)[C@H](C)C(O)=O

> <Synonyms>


> <PUBCHEM_CID>


> <Molecular_formula>
C15H18O4

> <Major_Isotope_Mass>
262.120509056

> <ALogP>
2.090299999999999

> <Lipinski_Violations>
0

> <Insecticide_Likeness_Violations>
0

> <Post_Em_Herbicide_Likeness_Violations>
0

> <Metabolite_ID>
BTM00006

> <Reaction>
alpha-Hydroxylation of carbonyl group

> <Reaction_ID>
BTMR1054

> <Enzyme(s)>
CYP1A2
CYP2A6
CYP2B6
CYP2C8
CYP2C9
CYP2C19
CYP2D6
CYP3A4

> <Biosystem>
HUMAN

> <Precursor_ID>
TEST0061_Loxoprofen

> <Precursor_SMILES>
O=C1[C@H](CCC1)CC2=CC=C(C=C2)[C@H](C)C(O)=O

> <Precursor_InChI>
InChI=1S/C15H18O3/c1-10(15(17)18)12-7-5-11(6-8-12)9-13-3-2-4-14(13)16/h5-8,10,13H,2-4,9H2,1H3,(H,17,18)/t10-,13+/m0/s1

> <Precursor_InChIKey>
YMBXTVYHTMGZDW-GXFFZTMASA-N

> <Precursor_ALogP>
2.770800

> <Precursor_Major_Isotope_Mass>
246.1255

$$$$
BTM00007
  CDK     08072416552D

 19 20  0  0  1  0  0  0  0  0999 V2000
   -6.5084    0.8691    0.0000 O   0  0  0  0  0  0  0  0  0  0  0  0
   -6.1929    2.3355    0.0000 C   0  0  0  0  0  0  0  0  0  0  0  0
   -4.8171    2.9384    0.0000 C   0  0  2  0  0  0  0  0  0  0  0  0
   -4.9829    4.4313    0.0000 C   0  0  0  0  0  0  0  0  0  0  0  0
   -6.4426    4.7429    0.0000 C   0  0  0  0  0  0  0  0  0  0  0  0
   -7.1926    3.4439    0.0000 C   0  0  0  0  0  0  0  0  0  0  0  0
   -3.5181    2.1884    0.0000 C   0  0  0  0  0  0  0  0  0  0  0  0
   -2.2190    2.9384    0.0000 C   0  0  0  0  0  0  0  0  0  0  0  0
   -2.2188    4.4393    0.0000 C   0  0  0  0  0  0  0  0  0  0  0  0
   -0.9194    5.1903    0.0000 C   0  0  0  0  0  0  0  0  0  0  0  0
    0.3798    4.4405    0.0000 C   0  0  0  0  0  0  0  0  0  0  0  0
    0.3795    2.9397    0.0000 C   0  0  0  0  0  0  0  0  0  0  0  0
   -0.9199    2.1886    0.0000 C   0  0  0  0  0  0  0  0  0  0  0  0
    1.6788    5.1905    0.0000 C   0  0  2  0  0  0  0  0  0  0  0  0
    1.6788    6.6905    0.0000 C   0  0  0  0  0  0  0  0  0  0  0  0
    2.9778    4.4405    0.0000 C   0  0  0  0  0  0  0  0  0  0  0  0
    4.2769    5.1905    0.0000 O   0  0  0  0  0  0  0  0  0  0  0  0
    2.9778    2.9405    0.0000 O   0  0  0  0  0  0  0  0  0  0  0  0
   -3.8707    5.4378    0.0000 O   0  0  0  0  0  0  0  0  0  0  0  0
  1  2  2  0  0  0  0
  2  3  1  0  0  0  0
  3  4  1  0  0  0  0
  4  5  1  0  0  0  0
  5  6  1  0  0  0  0
  2  6  1  0  0  0  0
  3  7  1  6  0  0  0
  7  8  1  0  0  0  0
  8  9  2  0  0  0  0
  9 10  1  0  0  0  0
 10 11  2  0  0  0  0
 11 12  1  0  0  0  0
 12 13  2  0  0  0  0
  8 13  1  0  0  0  0
 14 11  1  0  0  0  0
 14 15  1  6  0  0  0
 14 16  1  0  0  0  0
 16 17  1  0  0  0  0
 16 18  2  0  0  0  0
 19  4  1  0  0  0  0
M  END
> <InChI>
InChI=1S/C15H18O4/c1-9(15(18)19)11-4-2-10(3-5-11)8-12-13(16)6-7-14(12)17/h2-5,9,12-13,16H,6-8H2,1H3,(H,18,19)/t9-,12-,13?/m0/s1

> <InChIKey>
OIISDTRZSSMNNV-PEJSQMDMSA-N

> <SMILES>
O=C1[C@H](C(CC1)O)CC2=CC=C(C=C2)[C@H](C)C(O)=O

> <Synonyms>


> <PUBCHEM_CID>


> <Molecular_formula>
C15H18O4

> <Major_Isotope_Mass>
262.120509056

> <ALogP>
1.6688999999999994

> <Lipinski_Violations>
0

> <Insecticide_Likeness_Violations>
0

> <Post_Em_Herbicide_Likeness_Violations>
0

> <Metabolite_ID>
BTM00007

> <Reaction>
Hydroxylation of alicyclic secondary carbon

> <Reaction_ID>
BTMR1067

> <Enzyme(s)>
CYP2B6
CYP2C9
CYP3A4

> <Biosystem>
HUMAN

> <Precursor_ID>
TEST0061_Loxoprofen

> <Precursor_SMILES>
O=C1[C@H](CCC1)CC2=CC=C(C=C2)[C@H](C)C(O)=O

> <Precursor_InChI>
InChI=1S/C15H18O3/c1-10(15(17)18)12-7-5-11(6-8-12)9-13-3-2-4-14(13)16/h5-8,10,13H,2-4,9H2,1H3,(H,17,18)/t10-,13+/m0/s1

> <Precursor_InChIKey>
YMBXTVYHTMGZDW-GXFFZTMASA-N

> <Precursor_ALogP>
2.770800

> <Precursor_Major_Isotope_Mass>
246.1255

$$$$
BTM00008
  CDK     08072416552D

 19 20  0  0  1  0  0  0  0  0999 V2000
    2.1235    5.8272    0.0000 O   0  0  0  0  0  0  0  0  0  0  0  0
    1.8080    4.3608    0.0000 C   0  0  0  0  0  0  0  0  0  0  0  0
    0.4322    3.7579    0.0000 C   0  0  2  0  0  0  0  0  0  0  0  0
    0.5980    2.2650    0.0000 C   0  0  0  0  0  0  0  0  0  0  0  0
    2.0577    1.9534    0.0000 C   0  0  0  0  0  0  0  0  0  0  0  0
    2.8077    3.2524    0.0000 C   0  0  0  0  0  0  0  0  0  0  0  0
   -0.8669    4.5079    0.0000 C   0  0  0  0  0  0  0  0  0  0  0  0
   -2.1659    3.7579    0.0000 C   0  0  0  0  0  0  0  0  0  0  0  0
   -2.1661    2.2570    0.0000 C   0  0  0  0  0  0  0  0  0  0  0  0
   -3.4655    1.5060    0.0000 C   0  0  0  0  0  0  0  0  0  0  0  0
   -4.7647    2.2558    0.0000 C   0  0  0  0  0  0  0  0  0  0  0  0
   -4.7644    3.7566    0.0000 C   0  0  0  0  0  0  0  0  0  0  0  0
   -3.4650    4.5077    0.0000 C   0  0  0  0  0  0  0  0  0  0  0  0
   -6.0637    1.5058    0.0000 C   0  0  2  0  0  0  0  0  0  0  0  0
   -6.0637    0.0058    0.0000 C   0  0  0  0  0  0  0  0  0  0  0  0
   -7.3628    2.2558    0.0000 C   0  0  0  0  0  0  0  0  0  0  0  0
   -8.6618    1.5058    0.0000 O   0  0  0  0  0  0  0  0  0  0  0  0
   -7.3628    3.7558    0.0000 O   0  0  0  0  0  0  0  0  0  0  0  0
    2.6672    0.5828    0.0000 O   0  0  0  0  0  0  0  0  0  0  0  0
  1  2  2  0  0  0  0
  2  3  1  0  0  0  0
  3  4  1  0  0  0  0
  4  5  1  0  0  0  0
  5  6  1  0  0  0  0
  2  6  1  0  0  0  0
  3  7  1  6  0  0  0
  7  8  1  0  0  0  0
  8  9  2  0  0  0  0
  9 10  1  0  0  0  0
 10 11  2  0  0  0  0
 11 12  1  0  0  0  0
 12 13  2  0  0  0  0
  8 13  1  0  0  0  0
 14 11  1  0  0  0  0
 14 15  1  6  0  0  0
 14 16  1  0  0  0  0
 16 17  1  0  0  0  0
 16 18  2  0  0  0  0
 19  5  1  0  0  0  0
M  END
> <InChI>
InChI=1S/C15H18O4/c1-9(15(18)19)11-4-2-10(3-5-11)6-12-7-13(16)8-14(12)17/h2-5,9,12-13,16H,6-8H2,1H3,(H,18,19)/t9-,12-,13?/m0/s1

> <InChIKey>
HCELXBMFHDEQMG-PEJSQMDMSA-N

> <SMILES>
O=C1[C@H](CC(C1)O)CC2=CC=C(C=C2)[C@H](C)C(O)=O

> <Synonyms>


> <PUBCHEM_CID>


> <Molecular_formula>
C15H18O4

> <Major_Isotope_Mass>
262.120509056

> <ALogP>
1.6688999999999994

> <Lipinski_Violations>
0

> <Insecticide_Likeness_Violations>
0

> <Post_Em_Herbicide_Likeness_Violations>
0

> <Metabolite_ID>
BTM00008

> <Reaction>
Hydroxylation of alicyclic secondary carbon

> <Reaction_ID>
BTMR1067

> <Enzyme(s)>
CYP2B6
CYP2C9
CYP3A4

> <Biosystem>
HUMAN

> <Precursor_ID>
TEST0061_Loxoprofen

> <Precursor_SMILES>
O=C1[C@H](CCC1)CC2=CC=C(C=C2)[C@H](C)C(O)=O

> <Precursor_InChI>
InChI=1S/C15H18O3/c1-10(15(17)18)12-7-5-11(6-8-12)9-13-3-2-4-14(13)16/h5-8,10,13H,2-4,9H2,1H3,(H,17,18)/t10-,13+/m0/s1

> <Precursor_InChIKey>
YMBXTVYHTMGZDW-GXFFZTMASA-N

> <Precursor_ALogP>
2.770800

> <Precursor_Major_Isotope_Mass>
246.1255

$$$$
BTM00009
  CDK     08072416552D

 18 19  0  0  1  0  0  0  0  0999 V2000
   -4.5523    1.8452    0.0000 O   0  0  0  0  0  0  0  0  0  0  0  0
   -4.2404    3.3125    0.0000 C   0  0  0  0  0  0  0  0  0  0  0  0
   -2.8701    3.9226    0.0000 C   0  0  2  0  0  0  0  0  0  0  0  0
   -3.0269    5.4143    0.0000 C   0  0  0  0  0  0  0  0  0  0  0  0
   -4.4941    5.7262    0.0000 C   0  0  0  0  0  0  0  0  0  0  0  0
   -5.2441    4.4272    0.0000 C   0  0  0  0  0  0  0  0  0  0  0  0
   -1.5710    3.1726    0.0000 C   0  0  0  0  0  0  0  0  0  0  0  0
   -0.2720    3.9226    0.0000 C   0  0  0  0  0  0  0  0  0  0  0  0
   -0.2718    5.4234    0.0000 C   0  0  0  0  0  0  0  0  0  0  0  0
    1.0276    6.1744    0.0000 C   0  0  0  0  0  0  0  0  0  0  0  0
    2.3268    5.4246    0.0000 C   0  0  0  0  0  0  0  0  0  0  0  0
    2.3265    3.9238    0.0000 C   0  0  0  0  0  0  0  0  0  0  0  0
    1.0272    3.1728    0.0000 C   0  0  0  0  0  0  0  0  0  0  0  0
    3.6258    6.1746    0.0000 C   0  0  2  0  0  0  0  0  0  0  0  0
    3.6258    7.6746    0.0000 C   0  0  0  0  0  0  0  0  0  0  0  0
    4.9249    5.4246    0.0000 C   0  0  0  0  0  0  0  0  0  0  0  0
    6.2239    6.1746    0.0000 O   0  0  0  0  0  0  0  0  0  0  0  0
    4.9249    3.9246    0.0000 O   0  0  0  0  0  0  0  0  0  0  0  0
  1  2  1  0  0  0  0
  2  3  1  0  0  0  0
  3  4  1  0  0  0  0
  4  5  1  0  0  0  0
  5  6  1  0  0  0  0
  2  6  1  0  0  0  0
  3  7  1  6  0  0  0
  7  8  1  0  0  0  0
  8  9  2  0  0  0  0
  9 10  1  0  0  0  0
 10 11  2  0  0  0  0
 11 12  1  0  0  0  0
 12 13  2  0  0  0  0
  8 13  1  0  0  0  0
 14 11  1  0  0  0  0
 14 15  1  6  0  0  0
 14 16  1  0  0  0  0
 16 17  1  0  0  0  0
 16 18  2  0  0  0  0
M  END
> <InChI>
InChI=1S/C15H20O3/c1-10(15(17)18)12-7-5-11(6-8-12)9-13-3-2-4-14(13)16/h5-8,10,13-14,16H,2-4,9H2,1H3,(H,17,18)/t10-,13+,14?/m0/s1

> <InChIKey>
SHAHPWSYJFYMRX-CMVMAMJTSA-N

> <SMILES>
OC1[C@H](CCC1)CC2=CC=C(C=C2)[C@H](C)C(O)=O

> <Synonyms>


> <PUBCHEM_CID>


> <Molecular_formula>
C15H20O3

> <Major_Isotope_Mass>
248.14124449999997

> <ALogP>
2.9535000000000013

> <Lipinski_Violations>
0

> <Insecticide_Likeness_Violations>
0

> <Post_Em_Herbicide_Likeness_Violations>
0

> <Metabolite_ID>
BTM00009

> <Reaction>
Reduction of ketone to alcohol

> <Reaction_ID>
BTMR1171

> <Enzyme(s)>
CYP2C9

> <Biosystem>
HUMAN

> <Precursor_ID>
TEST0061_Loxoprofen

> <Precursor_SMILES>
O=C1[C@H](CCC1)CC2=CC=C(C=C2)[C@H](C)C(O)=O

> <Precursor_InChI>
InChI=1S/C15H18O3/c1-10(15(17)18)12-7-5-11(6-8-12)9-13-3-2-4-14(13)16/h5-8,10,13H,2-4,9H2,1H3,(H,17,18)/t10-,13+/m0/s1

> <Precursor_InChIKey>
YMBXTVYHTMGZDW-GXFFZTMASA-N

> <Precursor_ALogP>
2.770800

> <Precursor_Major_Isotope_Mass>
246.1255

$$$$
