BTM00001
  CDK     08072417012D

  7  7  0  0  0  0  0  0  0  0999 V2000
   -3.0736   -2.3236    0.0000 N   0  0  0  0  0  0  0  0  0  0  0  0
   -1.7745   -1.5736    0.0000 C   0  0  0  0  0  0  0  0  0  0  0  0
   -1.7745   -0.0736    0.0000 O   0  0  0  0  0  0  0  0  0  0  0  0
   -0.4755   -2.3236    0.0000 O   0  0  0  0  0  0  0  0  0  0  0  0
    0.8236   -1.5736    0.0000 C   0  0  0  0  0  0  0  0  0  0  0  0
    2.3236   -1.5736    0.0000 C   0  0  0  0  0  0  0  0  0  0  0  0
    1.5736   -0.2745    0.0000 O   0  0  0  0  0  0  0  0  0  0  0  0
  1  2  1  0  0  0  0
  2  3  2  0  0  0  0
  2  4  1  0  0  0  0
  4  5  1  0  0  0  0
  5  6  1  0  0  0  0
  5  7  1  0  0  0  0
  7  6  1  0  0  0  0
M  END
> <InChI>
InChI=1S/C3H5NO3/c4-3(5)7-2-1-6-2/h2H,1H2,(H2,4,5)

> <InChIKey>
PSNIYGKWARCUAN-UHFFFAOYSA-N

> <SMILES>
NC(=O)OC1CO1

> <Synonyms>


> <PUBCHEM_CID>


> <Molecular_formula>
C3H5NO3

> <Major_Isotope_Mass>
103.02694301999999

> <ALogP>
-0.30149999999999966

> <Lipinski_Violations>
0

> <Insecticide_Likeness_Violations>
0

> <Post_Em_Herbicide_Likeness_Violations>
0

> <Metabolite_ID>
BTM00001

> <Reaction>
Epoxidation of vinyl ether

> <Reaction_ID>
BTMR1026

> <Enzyme(s)>
CYP1A2
CYP3A4

> <Biosystem>
HUMAN

> <Precursor_ID>
TEST0099_Vinyl_carbamate

> <Precursor_SMILES>
NC(=O)OC=C

> <Precursor_InChI>
InChI=1S/C3H5NO2/c1-2-6-3(4)5/h2H,1H2,(H2,4,5)

> <Precursor_InChIKey>
LVLANIHJQRZTPY-UHFFFAOYSA-N

> <Precursor_ALogP>
-0.10469

> <Precursor_Major_Isotope_Mass>
87.03202

$$$$
