BTM00001
  CDK     08072416552D

 29 31  0  0  0  0  0  0  0  0999 V2000
   -5.0649   -1.5989    0.0000 S   0  0  0  0  0  0  0  0  0  0  0  0
   -6.0293   -2.7478    0.0000 O   0  0  0  0  0  0  0  0  0  0  0  0
   -4.1009   -2.7481    0.0000 O   0  0  0  0  0  0  0  0  0  0  0  0
   -3.7658   -0.8491    0.0000 N   0  0  0  0  0  0  0  0  0  0  0  0
   -2.4669   -1.5993    0.0000 C   0  0  0  0  0  0  0  0  0  0  0  0
   -1.1669   -0.8493    0.0000 C   0  0  0  0  0  0  0  0  0  0  0  0
    0.1331   -1.5993    0.0000 C   0  0  0  0  0  0  0  0  0  0  0  0
    0.1331   -3.0993    0.0000 C   0  0  0  0  0  0  0  0  0  0  0  0
   -1.1669   -3.8493    0.0000 C   0  0  0  0  0  0  0  0  0  0  0  0
   -2.4669   -3.0993    0.0000 C   0  0  0  0  0  0  0  0  0  0  0  0
    1.4321   -3.8495    0.0000 C   0  0  0  0  0  0  0  0  0  0  0  0
    1.4318   -5.3495    0.0000 O   0  0  0  0  0  0  0  0  0  0  0  0
    2.7312   -3.0997    0.0000 C   0  0  0  0  0  0  0  0  0  0  0  0
    4.0301   -3.8499    0.0000 C   0  0  0  0  0  0  0  0  0  0  0  0
    5.3293   -3.1001    0.0000 C   0  0  0  0  0  0  0  0  0  0  0  0
    5.3221   -1.6001    0.0000 C   0  0  0  0  0  0  0  0  0  0  0  0
    6.5886   -0.8441    0.0000 C   0  0  0  0  0  0  0  0  0  0  0  0
    7.9421   -1.5877    0.0000 C   0  0  0  0  0  0  0  0  0  0  0  0
    9.2313   -0.8208    0.0000 O   0  0  0  0  0  0  0  0  0  0  0  0
    7.9493   -3.0877    0.0000 C   0  0  0  0  0  0  0  0  0  0  0  0
    6.6028   -3.8441    0.0000 C   0  0  0  0  0  0  0  0  0  0  0  0
   -6.0289   -0.4497    0.0000 C   0  0  0  0  0  0  0  0  0  0  0  0
   -7.5062   -0.7097    0.0000 C   0  0  0  0  0  0  0  0  0  0  0  0
   -8.4702    0.4407    0.0000 C   0  0  0  0  0  0  0  0  0  0  0  0
   -7.9569    1.8510    0.0000 C   0  0  0  0  0  0  0  0  0  0  0  0
   -6.4796    2.1110    0.0000 C   0  0  0  0  0  0  0  0  0  0  0  0
   -5.5156    0.9607    0.0000 C   0  0  0  0  0  0  0  0  0  0  0  0
   -8.9209    3.0002    0.0000 C   0  0  0  0  0  0  0  0  0  0  0  0
  -10.3981    2.7400    0.0000 O   0  0  0  0  0  0  0  0  0  0  0  0
  1  2  2  0  0  0  0
  1  3  2  0  0  0  0
  1  4  1  0  0  0  0
  4  5  1  0  0  0  0
  5  6  2  0  0  0  0
  6  7  1  0  0  0  0
  7  8  2  0  0  0  0
  8  9  1  0  0  0  0
  9 10  2  0  0  0  0
  5 10  1  0  0  0  0
  8 11  1  0  0  0  0
 11 12  2  0  0  0  0
 11 13  1  0  0  0  0
 13 14  2  0  0  0  0
 14 15  1  0  0  0  0
 15 16  2  0  0  0  0
 16 17  1  0  0  0  0
 17 18  2  0  0  0  0
 18 19  1  0  0  0  0
 18 20  1  0  0  0  0
 20 21  2  0  0  0  0
 15 21  1  0  0  0  0
  1 22  1  0  0  0  0
 22 23  2  0  0  0  0
 23 24  1  0  0  0  0
 24 25  2  0  0  0  0
 25 26  1  0  0  0  0
 26 27  2  0  0  0  0
 22 27  1  0  0  0  0
 25 28  1  0  0  0  0
 29 28  1  0  0  0  0
M  END
> <InChI>
InChI=1S/C22H19NO5S/c24-15-17-3-12-21(13-4-17)29(27,28)23-19-8-6-18(7-9-19)22(26)14-5-16-1-10-20(25)11-2-16/h1-14,23-25H,15H2/b14-5+

> <InChIKey>
CZAUUEPUFWKXTK-LHHJGKSTSA-N

> <SMILES>
S(=O)(=O)(NC1=CC=C(C=C1)C(=O)/C=C/C2=CC=C(O)C=C2)C3=CC=C(C=C3)CO

> <Synonyms>


> <PUBCHEM_CID>


> <Molecular_formula>
C22H19NO5S

> <Major_Isotope_Mass>
409.09839370800006

> <ALogP>
3.317800000000001

> <Lipinski_Violations>
0

> <Insecticide_Likeness_Violations>
1

> <Post_Em_Herbicide_Likeness_Violations>
1

> <Metabolite_ID>
BTM00001

> <Reaction>
Aliphatic hydroxylation of methyl carbon adjacent to aromatic ring AndFromCyProduct

> <Reaction_ID>
N/A

> <Enzyme(s)>
CYP1A2
CYP2A6
CYP2B6
CYP2C8
CYP2C9
CYP2C19
CYP2D6
CYP2E1
CYP3A4

> <Biosystem>
HUMAN

> <Precursor_ID>
TEST0058_TSAHC

> <Precursor_SMILES>
S(=O)(=O)(NC1=CC=C(C=C1)C(=O)/C=C/C2=CC=C(O)C=C2)C3=CC=C(C=C3)C

> <Precursor_InChI>
InChI=1S/C22H19NO4S/c1-16-2-13-21(14-3-16)28(26,27)23-19-9-7-18(8-10-19)22(25)15-6-17-4-11-20(24)12-5-17/h2-15,23-24H,1H3/b15-6+

> <Precursor_InChIKey>
KDODYFOOJCIHGK-GIDUJCDVSA-N

> <Precursor_ALogP>
4.408500

> <Precursor_Major_Isotope_Mass>
393.1034

$$$$
BTM00002
  CDK     08072416552D

 29 31  0  0  0  0  0  0  0  0999 V2000
    3.8981   -0.7504    0.0000 S   0  0  0  0  0  0  0  0  0  0  0  0
    4.8624    0.3985    0.0000 O   0  0  0  0  0  0  0  0  0  0  0  0
    2.9341    0.3988    0.0000 O   0  0  0  0  0  0  0  0  0  0  0  0
    2.5989   -1.5002    0.0000 N   0  0  0  0  0  0  0  0  0  0  0  0
    1.3000   -0.7500    0.0000 C   0  0  0  0  0  0  0  0  0  0  0  0
    0.0000   -1.5000    0.0000 C   0  0  0  0  0  0  0  0  0  0  0  0
   -1.3000   -0.7500    0.0000 C   0  0  0  0  0  0  0  0  0  0  0  0
   -1.3000    0.7500    0.0000 C   0  0  0  0  0  0  0  0  0  0  0  0
    0.0000    1.5000    0.0000 C   0  0  0  0  0  0  0  0  0  0  0  0
    1.3000    0.7500    0.0000 C   0  0  0  0  0  0  0  0  0  0  0  0
   -2.5989    1.5002    0.0000 C   0  0  0  0  0  0  0  0  0  0  0  0
   -2.5987    3.0002    0.0000 O   0  0  0  0  0  0  0  0  0  0  0  0
   -3.8981    0.7504    0.0000 C   0  0  0  0  0  0  0  0  0  0  0  0
   -5.1970    1.5006    0.0000 C   0  0  0  0  0  0  0  0  0  0  0  0
   -6.4962    0.7508    0.0000 C   0  0  0  0  0  0  0  0  0  0  0  0
   -6.4890   -0.7492    0.0000 C   0  0  0  0  0  0  0  0  0  0  0  0
   -7.7554   -1.5052    0.0000 C   0  0  0  0  0  0  0  0  0  0  0  0
   -9.1090   -0.7616    0.0000 C   0  0  0  0  0  0  0  0  0  0  0  0
  -10.3981   -1.5285    0.0000 O   0  0  0  0  0  0  0  0  0  0  0  0
   -9.1161    0.7384    0.0000 C   0  0  0  0  0  0  0  0  0  0  0  0
   -7.7697    1.4948    0.0000 C   0  0  0  0  0  0  0  0  0  0  0  0
    4.8621   -1.8996    0.0000 C   0  0  0  0  0  0  0  0  0  0  0  0
    6.3402   -1.6395    0.0000 C   0  0  0  0  0  0  0  0  0  0  0  0
    7.3053   -2.7889    0.0000 C   0  0  0  0  0  0  0  0  0  0  0  0
    6.7922   -4.1984    0.0000 C   0  0  0  0  0  0  0  0  0  0  0  0
    5.3141   -4.4586    0.0000 C   0  0  0  0  0  0  0  0  0  0  0  0
    4.3490   -3.3092    0.0000 C   0  0  0  0  0  0  0  0  0  0  0  0
    7.7562   -5.3477    0.0000 C   0  0  0  0  0  0  0  0  0  0  0  0
    4.8011   -5.8681    0.0000 O   0  0  0  0  0  0  0  0  0  0  0  0
  1  2  2  0  0  0  0
  1  3  2  0  0  0  0
  1  4  1  0  0  0  0
  4  5  1  0  0  0  0
  5  6  2  0  0  0  0
  6  7  1  0  0  0  0
  7  8  2  0  0  0  0
  8  9  1  0  0  0  0
  9 10  2  0  0  0  0
  5 10  1  0  0  0  0
  8 11  1  0  0  0  0
 11 12  2  0  0  0  0
 11 13  1  0  0  0  0
 13 14  2  0  0  0  0
 14 15  1  0  0  0  0
 15 16  2  0  0  0  0
 16 17  1  0  0  0  0
 17 18  2  0  0  0  0
 18 19  1  0  0  0  0
 18 20  1  0  0  0  0
 20 21  2  0  0  0  0
 15 21  1  0  0  0  0
  1 22  1  0  0  0  0
 22 23  2  0  0  0  0
 23 24  1  0  0  0  0
 24 25  2  0  0  0  0
 25 26  1  0  0  0  0
 26 27  2  0  0  0  0
 22 27  1  0  0  0  0
 25 28  1  0  0  0  0
 29 26  1  0  0  0  0
M  END
> <InChI>
InChI=1S/C22H19NO5S/c1-15-2-12-20(14-22(15)26)29(27,28)23-18-8-6-17(7-9-18)21(25)13-5-16-3-10-19(24)11-4-16/h2-14,23-24,26H,1H3/b13-5+

> <InChIKey>
QKSVRGINMKLLOE-WLRTZDKTSA-N

> <SMILES>
S(=O)(=O)(NC1=CC=C(C=C1)C(=O)/C=C/C2=CC=C(O)C=C2)C3=CC=C(C(=C3)O)C

> <Synonyms>


> <PUBCHEM_CID>


> <Molecular_formula>
C22H19NO5S

> <Major_Isotope_Mass>
409.098393708

> <ALogP>
4.141100000000001

> <Lipinski_Violations>
0

> <Insecticide_Likeness_Violations>
1

> <Post_Em_Herbicide_Likeness_Violations>
1

> <Metabolite_ID>
BTM00002

> <Reaction>
2-Hydroxylation of 1,4-disubstituted benzene

> <Reaction_ID>
BTMR0037

> <Enzyme(s)>
CYP1A2

> <Biosystem>
HUMAN

> <Precursor_ID>
TEST0058_TSAHC

> <Precursor_SMILES>
S(=O)(=O)(NC1=CC=C(C=C1)C(=O)/C=C/C2=CC=C(O)C=C2)C3=CC=C(C=C3)C

> <Precursor_InChI>
InChI=1S/C22H19NO4S/c1-16-2-13-21(14-3-16)28(26,27)23-19-9-7-18(8-10-19)22(25)15-6-17-4-11-20(24)12-5-17/h2-15,23-24H,1H3/b15-6+

> <Precursor_InChIKey>
KDODYFOOJCIHGK-GIDUJCDVSA-N

> <Precursor_ALogP>
4.408500

> <Precursor_Major_Isotope_Mass>
393.1034

$$$$
BTM00003
  CDK     08072416552D

 29 31  0  0  0  0  0  0  0  0999 V2000
   -6.8137   -0.5361    0.0000 S   0  0  0  0  0  0  0  0  0  0  0  0
   -5.8493    0.6128    0.0000 O   0  0  0  0  0  0  0  0  0  0  0  0
   -7.7777    0.6131    0.0000 O   0  0  0  0  0  0  0  0  0  0  0  0
   -5.5148   -1.2863    0.0000 N   0  0  0  0  0  0  0  0  0  0  0  0
   -4.2156   -0.5365    0.0000 C   0  0  0  0  0  0  0  0  0  0  0  0
   -4.2151    0.9643    0.0000 C   0  0  0  0  0  0  0  0  0  0  0  0
   -2.9156    1.7151    0.0000 C   0  0  0  0  0  0  0  0  0  0  0  0
   -1.6166    0.9651    0.0000 C   0  0  0  0  0  0  0  0  0  0  0  0
   -1.6170   -0.5357    0.0000 C   0  0  0  0  0  0  0  0  0  0  0  0
   -2.9166   -1.2865    0.0000 C   0  0  0  0  0  0  0  0  0  0  0  0
   -0.3174    1.7149    0.0000 C   0  0  0  0  0  0  0  0  0  0  0  0
   -0.3172    3.2149    0.0000 O   0  0  0  0  0  0  0  0  0  0  0  0
    0.9815    0.9647    0.0000 C   0  0  0  0  0  0  0  0  0  0  0  0
    2.2807    1.7145    0.0000 C   0  0  0  0  0  0  0  0  0  0  0  0
    3.5796    0.9643    0.0000 C   0  0  0  0  0  0  0  0  0  0  0  0
    4.8750    1.7205    0.0000 C   0  0  0  0  0  0  0  0  0  0  0  0
    6.1630    1.0018    0.0000 C   0  0  0  0  0  0  0  0  0  0  0  0
    6.1958   -0.5422    0.0000 C   0  0  0  0  0  0  0  0  0  0  0  0
    7.5045   -1.2753    0.0000 O   0  0  0  0  0  0  0  0  0  0  0  0
    4.9004   -1.2984    0.0000 C   0  0  0  0  0  0  0  0  0  0  0  0
    3.5721   -0.5106    0.0000 C   0  0  0  0  0  0  0  0  0  0  0  0
   -7.7780   -1.6850    0.0000 C   0  0  0  0  0  0  0  0  0  0  0  0
   -7.2655   -3.0947    0.0000 C   0  0  0  0  0  0  0  0  0  0  0  0
   -8.2309   -4.2438    0.0000 C   0  0  0  0  0  0  0  0  0  0  0  0
   -9.7089   -3.9832    0.0000 C   0  0  0  0  0  0  0  0  0  0  0  0
  -10.2215   -2.5735    0.0000 C   0  0  0  0  0  0  0  0  0  0  0  0
   -9.2561   -1.4244    0.0000 C   0  0  0  0  0  0  0  0  0  0  0  0
  -10.6733   -5.1321    0.0000 C   0  0  0  0  0  0  0  0  0  0  0  0
   -0.3180   -1.2857    0.0000 O   0  0  0  0  0  0  0  0  0  0  0  0
  1  2  2  0  0  0  0
  1  3  2  0  0  0  0
  1  4  1  0  0  0  0
  4  5  1  0  0  0  0
  5  6  2  0  0  0  0
  6  7  1  0  0  0  0
  7  8  2  0  0  0  0
  8  9  1  0  0  0  0
  9 10  2  0  0  0  0
  5 10  1  0  0  0  0
  8 11  1  0  0  0  0
 11 12  2  0  0  0  0
 11 13  1  0  0  0  0
 13 14  2  0  0  0  0
 14 15  1  0  0  0  0
 15 16  2  0  0  0  0
 16 17  1  0  0  0  0
 17 18  2  0  0  0  0
 18 19  1  0  0  0  0
 18 20  1  0  0  0  0
 20 21  2  0  0  0  0
 15 21  1  0  0  0  0
  1 22  1  0  0  0  0
 22 23  2  0  0  0  0
 23 24  1  0  0  0  0
 24 25  2  0  0  0  0
 25 26  1  0  0  0  0
 26 27  2  0  0  0  0
 22 27  1  0  0  0  0
 25 28  1  0  0  0  0
 29  9  1  0  0  0  0
M  END
> <InChI>
InChI=1S/C22H19NO5S/c1-15-2-10-19(11-3-15)29(27,28)23-17-7-12-20(22(26)14-17)21(25)13-6-16-4-8-18(24)9-5-16/h2-14,23-24,26H,1H3/b13-6+

> <InChIKey>
XJOJKAICHFCQIM-AWNIVKPZSA-N

> <SMILES>
S(=O)(=O)(NC1=CC=C(C(=C1)O)C(=O)/C=C/C2=CC=C(O)C=C2)C3=CC=C(C=C3)C

> <Synonyms>


> <PUBCHEM_CID>


> <Molecular_formula>
C22H19NO5S

> <Major_Isotope_Mass>
409.098393708

> <ALogP>
4.141100000000001

> <Lipinski_Violations>
0

> <Insecticide_Likeness_Violations>
1

> <Post_Em_Herbicide_Likeness_Violations>
1

> <Metabolite_ID>
BTM00003

> <Reaction>
2-Hydroxylation of 1,4-disubstituted benzene

> <Reaction_ID>
BTMR0037

> <Enzyme(s)>
CYP1A2

> <Biosystem>
HUMAN

> <Precursor_ID>
TEST0058_TSAHC

> <Precursor_SMILES>
S(=O)(=O)(NC1=CC=C(C=C1)C(=O)/C=C/C2=CC=C(O)C=C2)C3=CC=C(C=C3)C

> <Precursor_InChI>
InChI=1S/C22H19NO4S/c1-16-2-13-21(14-3-16)28(26,27)23-19-9-7-18(8-10-19)22(25)15-6-17-4-11-20(24)12-5-17/h2-15,23-24H,1H3/b15-6+

> <Precursor_InChIKey>
KDODYFOOJCIHGK-GIDUJCDVSA-N

> <Precursor_ALogP>
4.408500

> <Precursor_Major_Isotope_Mass>
393.1034

$$$$
BTM00004
  CDK     08072416552D

 29 31  0  0  0  0  0  0  0  0999 V2000
    3.8981   -0.7504    0.0000 S   0  0  0  0  0  0  0  0  0  0  0  0
    4.8624    0.3985    0.0000 O   0  0  0  0  0  0  0  0  0  0  0  0
    2.9341    0.3988    0.0000 O   0  0  0  0  0  0  0  0  0  0  0  0
    2.5989   -1.5002    0.0000 N   0  0  0  0  0  0  0  0  0  0  0  0
    1.3000   -0.7500    0.0000 C   0  0  0  0  0  0  0  0  0  0  0  0
    0.0000   -1.5000    0.0000 C   0  0  0  0  0  0  0  0  0  0  0  0
   -1.3000   -0.7500    0.0000 C   0  0  0  0  0  0  0  0  0  0  0  0
   -1.3000    0.7500    0.0000 C   0  0  0  0  0  0  0  0  0  0  0  0
    0.0000    1.5000    0.0000 C   0  0  0  0  0  0  0  0  0  0  0  0
    1.3000    0.7500    0.0000 C   0  0  0  0  0  0  0  0  0  0  0  0
   -2.5989    1.5002    0.0000 C   0  0  0  0  0  0  0  0  0  0  0  0
   -2.5987    3.0002    0.0000 O   0  0  0  0  0  0  0  0  0  0  0  0
   -3.8981    0.7504    0.0000 C   0  0  0  0  0  0  0  0  0  0  0  0
   -5.1970    1.5006    0.0000 C   0  0  0  0  0  0  0  0  0  0  0  0
   -6.4962    0.7508    0.0000 C   0  0  0  0  0  0  0  0  0  0  0  0
   -7.7956    1.5019    0.0000 C   0  0  0  0  0  0  0  0  0  0  0  0
   -9.0947    0.7521    0.0000 C   0  0  0  0  0  0  0  0  0  0  0  0
   -9.0945   -0.7488    0.0000 C   0  0  0  0  0  0  0  0  0  0  0  0
  -10.3936   -1.4985    0.0000 O   0  0  0  0  0  0  0  0  0  0  0  0
   -7.7951   -1.4998    0.0000 C   0  0  0  0  0  0  0  0  0  0  0  0
   -6.4959   -0.7500    0.0000 C   0  0  0  0  0  0  0  0  0  0  0  0
    4.8621   -1.8996    0.0000 C   0  0  0  0  0  0  0  0  0  0  0  0
    6.3394   -1.6396    0.0000 C   0  0  0  0  0  0  0  0  0  0  0  0
    7.3033   -2.7900    0.0000 C   0  0  0  0  0  0  0  0  0  0  0  0
    6.7900   -4.2003    0.0000 C   0  0  0  0  0  0  0  0  0  0  0  0
    5.3127   -4.4603    0.0000 C   0  0  0  0  0  0  0  0  0  0  0  0
    4.3488   -3.3100    0.0000 C   0  0  0  0  0  0  0  0  0  0  0  0
    7.7540   -5.3495    0.0000 C   0  0  0  0  0  0  0  0  0  0  0  0
   -7.7956   -2.9998    0.0000 O   0  0  0  0  0  0  0  0  0  0  0  0
  1  2  2  0  0  0  0
  1  3  2  0  0  0  0
  1  4  1  0  0  0  0
  4  5  1  0  0  0  0
  5  6  2  0  0  0  0
  6  7  1  0  0  0  0
  7  8  2  0  0  0  0
  8  9  1  0  0  0  0
  9 10  2  0  0  0  0
  5 10  1  0  0  0  0
  8 11  1  0  0  0  0
 11 12  2  0  0  0  0
 11 13  1  0  0  0  0
 13 14  2  0  0  0  0
 14 15  1  0  0  0  0
 15 16  2  0  0  0  0
 16 17  1  0  0  0  0
 17 18  2  0  0  0  0
 18 19  1  0  0  0  0
 18 20  1  0  0  0  0
 20 21  2  0  0  0  0
 15 21  1  0  0  0  0
  1 22  1  0  0  0  0
 22 23  2  0  0  0  0
 23 24  1  0  0  0  0
 24 25  2  0  0  0  0
 25 26  1  0  0  0  0
 26 27  2  0  0  0  0
 22 27  1  0  0  0  0
 25 28  1  0  0  0  0
 29 20  1  0  0  0  0
M  END
> <InChI>
InChI=1S/C22H19NO5S/c1-15-2-10-19(11-3-15)29(27,28)23-18-8-6-17(7-9-18)20(24)12-4-16-5-13-21(25)22(26)14-16/h2-14,23,25-26H,1H3/b12-4+

> <InChIKey>
XCEAUELSIXURQB-UUILKARUSA-N

> <SMILES>
S(=O)(=O)(NC1=CC=C(C=C1)C(=O)/C=C/C2=CC=C(O)C(=C2)O)C3=CC=C(C=C3)C

> <Synonyms>


> <PUBCHEM_CID>


> <Molecular_formula>
C22H19NO5S

> <Major_Isotope_Mass>
409.098393708

> <ALogP>
4.141100000000001

> <Lipinski_Violations>
0

> <Insecticide_Likeness_Violations>
1

> <Post_Em_Herbicide_Likeness_Violations>
1

> <Metabolite_ID>
BTM00004

> <Reaction>
2-Hydroxylation of 1,4-disubstituted benzene

> <Reaction_ID>
BTMR0037

> <Enzyme(s)>
CYP1A2

> <Biosystem>
HUMAN

> <Precursor_ID>
TEST0058_TSAHC

> <Precursor_SMILES>
S(=O)(=O)(NC1=CC=C(C=C1)C(=O)/C=C/C2=CC=C(O)C=C2)C3=CC=C(C=C3)C

> <Precursor_InChI>
InChI=1S/C22H19NO4S/c1-16-2-13-21(14-3-16)28(26,27)23-19-9-7-18(8-10-19)22(25)15-6-17-4-11-20(24)12-5-17/h2-15,23-24H,1H3/b15-6+

> <Precursor_InChIKey>
KDODYFOOJCIHGK-GIDUJCDVSA-N

> <Precursor_ALogP>
4.408500

> <Precursor_Major_Isotope_Mass>
393.1034

$$$$
BTM00005
  CDK     08072416552D

 29 32  0  0  0  0  0  0  0  0999 V2000
    3.7699   -2.4278    0.0000 S   0  0  0  0  0  0  0  0  0  0  0  0
    4.7341   -1.2788    0.0000 O   0  0  0  0  0  0  0  0  0  0  0  0
    2.8057   -1.2788    0.0000 O   0  0  0  0  0  0  0  0  0  0  0  0
    2.4708   -3.1778    0.0000 N   0  0  0  0  0  0  0  0  0  0  0  0
    1.1718   -2.4278    0.0000 C   0  0  0  0  0  0  0  0  0  0  0  0
   -0.1281   -3.1780    0.0000 C   0  0  0  0  0  0  0  0  0  0  0  0
   -1.4282   -2.4283    0.0000 C   0  0  0  0  0  0  0  0  0  0  0  0
   -1.4284   -0.9283    0.0000 C   0  0  0  0  0  0  0  0  0  0  0  0
   -0.1286   -0.1780    0.0000 C   0  0  0  0  0  0  0  0  0  0  0  0
    1.1716   -0.9278    0.0000 C   0  0  0  0  0  0  0  0  0  0  0  0
   -2.7275   -0.1783    0.0000 C   0  0  0  0  0  0  0  0  0  0  0  0
   -2.7275    1.3217    0.0000 O   0  0  0  0  0  0  0  0  0  0  0  0
   -4.0265   -0.9283    0.0000 C   0  0  0  0  0  0  0  0  0  0  0  0
   -5.5265   -0.9283    0.0000 C   0  0  0  0  0  0  0  0  0  0  0  0
   -6.8256   -0.1783    0.0000 C   0  0  0  0  0  0  0  0  0  0  0  0
   -8.1254   -0.9285    0.0000 C   0  0  0  0  0  0  0  0  0  0  0  0
   -9.4256   -0.1787    0.0000 C   0  0  0  0  0  0  0  0  0  0  0  0
   -9.4258    1.3213    0.0000 C   0  0  0  0  0  0  0  0  0  0  0  0
  -10.7248    2.0713    0.0000 O   0  0  0  0  0  0  0  0  0  0  0  0
   -8.1259    2.0715    0.0000 C   0  0  0  0  0  0  0  0  0  0  0  0
   -6.8258    1.3217    0.0000 C   0  0  0  0  0  0  0  0  0  0  0  0
    4.7341   -3.5769    0.0000 C   0  0  0  0  0  0  0  0  0  0  0  0
    6.2113   -3.3167    0.0000 C   0  0  0  0  0  0  0  0  0  0  0  0
    7.1755   -4.4668    0.0000 C   0  0  0  0  0  0  0  0  0  0  0  0
    6.6624   -5.8772    0.0000 C   0  0  0  0  0  0  0  0  0  0  0  0
    5.1851   -6.1375    0.0000 C   0  0  0  0  0  0  0  0  0  0  0  0
    4.2210   -4.9873    0.0000 C   0  0  0  0  0  0  0  0  0  0  0  0
    7.6266   -7.0263    0.0000 C   0  0  0  0  0  0  0  0  0  0  0  0
   -4.7765   -2.2273    0.0000 O   0  0  0  0  0  0  0  0  0  0  0  0
  1  2  2  0  0  0  0
  1  3  2  0  0  0  0
  1  4  1  0  0  0  0
  4  5  1  0  0  0  0
  5  6  2  0  0  0  0
  6  7  1  0  0  0  0
  7  8  2  0  0  0  0
  8  9  1  0  0  0  0
  9 10  2  0  0  0  0
  5 10  1  0  0  0  0
  8 11  1  0  0  0  0
 11 12  2  0  0  0  0
 11 13  1  0  0  0  0
 13 14  1  0  0  0  0
 14 15  1  0  0  0  0
 15 16  2  0  0  0  0
 16 17  1  0  0  0  0
 17 18  2  0  0  0  0
 18 19  1  0  0  0  0
 18 20  1  0  0  0  0
 20 21  2  0  0  0  0
 15 21  1  0  0  0  0
  1 22  1  0  0  0  0
 22 23  2  0  0  0  0
 23 24  1  0  0  0  0
 24 25  2  0  0  0  0
 25 26  1  0  0  0  0
 26 27  2  0  0  0  0
 22 27  1  0  0  0  0
 25 28  1  0  0  0  0
 14 29  1  0  0  0  0
 29 13  1  0  0  0  0
M  END
> <InChI>
InChI=1S/C22H19NO5S/c1-14-2-12-19(13-3-14)29(26,27)23-17-8-4-15(5-9-17)20(25)22-21(28-22)16-6-10-18(24)11-7-16/h2-13,21-24H,1H3

> <InChIKey>
DSOIJKMJJHHGCB-UHFFFAOYSA-N

> <SMILES>
S(=O)(=O)(NC1=CC=C(C=C1)C(=O)C2C(C3=CC=C(O)C=C3)O2)C4=CC=C(C=C4)C

> <Synonyms>


> <PUBCHEM_CID>


> <Molecular_formula>
C22H19NO5S

> <Major_Isotope_Mass>
409.09839370800006

> <ALogP>
3.685800000000001

> <Lipinski_Violations>
0

> <Insecticide_Likeness_Violations>
0

> <Post_Em_Herbicide_Likeness_Violations>
0

> <Metabolite_ID>
BTM00005

> <Reaction>
Epoxidation of alkene

> <Reaction_ID>
BTMR0109

> <Enzyme(s)>
CYP1A2
CYP2B6
CYP2B6
CYP2C8
CYP2C9
CYP2C19
CYP2D6
CYP2E1
CYP3A4

> <Biosystem>
HUMAN

> <Precursor_ID>
TEST0058_TSAHC

> <Precursor_SMILES>
S(=O)(=O)(NC1=CC=C(C=C1)C(=O)/C=C/C2=CC=C(O)C=C2)C3=CC=C(C=C3)C

> <Precursor_InChI>
InChI=1S/C22H19NO4S/c1-16-2-13-21(14-3-16)28(26,27)23-19-9-7-18(8-10-19)22(25)15-6-17-4-11-20(24)12-5-17/h2-15,23-24H,1H3/b15-6+

> <Precursor_InChIKey>
KDODYFOOJCIHGK-GIDUJCDVSA-N

> <Precursor_ALogP>
4.408500

> <Precursor_Major_Isotope_Mass>
393.1034

$$$$
BTM00006
  CDK     08072416552D

 28 30  0  0  0  0  0  0  0  0999 V2000
   -3.8981    0.7504    0.0000 S   0  0  0  0  0  0  0  0  0  0  0  0
   -4.8624   -0.3985    0.0000 O   0  0  0  0  0  0  0  0  0  0  0  0
   -2.9341   -0.3988    0.0000 O   0  0  0  0  0  0  0  0  0  0  0  0
   -2.5989    1.5002    0.0000 N   0  0  0  0  0  0  0  0  0  0  0  0
   -1.3000    0.7500    0.0000 C   0  0  0  0  0  0  0  0  0  0  0  0
    0.0000    1.5000    0.0000 C   0  0  0  0  0  0  0  0  0  0  0  0
    1.3000    0.7500    0.0000 C   0  0  0  0  0  0  0  0  0  0  0  0
    1.3000   -0.7500    0.0000 C   0  0  0  0  0  0  0  0  0  0  0  0
    0.0000   -1.5000    0.0000 C   0  0  0  0  0  0  0  0  0  0  0  0
   -1.3000   -0.7500    0.0000 C   0  0  0  0  0  0  0  0  0  0  0  0
    2.5989   -1.5002    0.0000 C   0  0  0  0  0  0  0  0  0  0  0  0
    2.5987   -3.0002    0.0000 O   0  0  0  0  0  0  0  0  0  0  0  0
    3.8981   -0.7504    0.0000 C   0  0  0  0  0  0  0  0  0  0  0  0
    5.1970   -1.5006    0.0000 C   0  0  0  0  0  0  0  0  0  0  0  0
    6.4962   -0.7508    0.0000 C   0  0  0  0  0  0  0  0  0  0  0  0
    6.4890    0.7492    0.0000 C   0  0  0  0  0  0  0  0  0  0  0  0
    7.7554    1.5052    0.0000 C   0  0  0  0  0  0  0  0  0  0  0  0
    9.1090    0.7616    0.0000 C   0  0  0  0  0  0  0  0  0  0  0  0
   10.3981    1.5285    0.0000 O   0  0  0  0  0  0  0  0  0  0  0  0
    9.1161   -0.7384    0.0000 C   0  0  0  0  0  0  0  0  0  0  0  0
    7.7697   -1.4948    0.0000 C   0  0  0  0  0  0  0  0  0  0  0  0
   -4.8621    1.8996    0.0000 C   0  0  0  0  0  0  0  0  0  0  0  0
   -6.3394    1.6396    0.0000 C   0  0  0  0  0  0  0  0  0  0  0  0
   -7.3033    2.7900    0.0000 C   0  0  0  0  0  0  0  0  0  0  0  0
   -6.7900    4.2003    0.0000 C   0  0  0  0  0  0  0  0  0  0  0  0
   -5.3127    4.4603    0.0000 C   0  0  0  0  0  0  0  0  0  0  0  0
   -4.3488    3.3100    0.0000 C   0  0  0  0  0  0  0  0  0  0  0  0
   -7.7540    5.3495    0.0000 C   0  0  0  0  0  0  0  0  0  0  0  0
  1  2  2  0  0  0  0
  1  3  2  0  0  0  0
  1  4  1  0  0  0  0
  4  5  1  0  0  0  0
  5  6  2  0  0  0  0
  6  7  1  0  0  0  0
  7  8  2  0  0  0  0
  8  9  1  0  0  0  0
  9 10  2  0  0  0  0
  5 10  1  0  0  0  0
  8 11  1  0  0  0  0
 11 12  1  0  0  0  0
 11 13  1  0  0  0  0
 13 14  2  0  0  0  0
 14 15  1  0  0  0  0
 15 16  2  0  0  0  0
 16 17  1  0  0  0  0
 17 18  2  0  0  0  0
 18 19  1  0  0  0  0
 18 20  1  0  0  0  0
 20 21  2  0  0  0  0
 15 21  1  0  0  0  0
  1 22  1  0  0  0  0
 22 23  2  0  0  0  0
 23 24  1  0  0  0  0
 24 25  2  0  0  0  0
 25 26  1  0  0  0  0
 26 27  2  0  0  0  0
 22 27  1  0  0  0  0
 25 28  1  0  0  0  0
M  END
> <InChI>
InChI=1S/C22H21NO4S/c1-16-2-13-21(14-3-16)28(26,27)23-19-9-7-18(8-10-19)22(25)15-6-17-4-11-20(24)12-5-17/h2-15,22-25H,1H3/b15-6+

> <InChIKey>
JFQGQXCEWQKLEX-GIDUJCDVSA-N

> <SMILES>
S(=O)(=O)(NC1=CC=C(C=C1)C(O)/C=C/C2=CC=C(O)C=C2)C3=CC=C(C=C3)C

> <Synonyms>


> <PUBCHEM_CID>


> <Molecular_formula>
C22H21NO4S

> <Major_Isotope_Mass>
395.119129152

> <ALogP>
4.0120000000000005

> <Lipinski_Violations>
0

> <Insecticide_Likeness_Violations>
1

> <Post_Em_Herbicide_Likeness_Violations>
1

> <Metabolite_ID>
BTM00006

> <Reaction>
Reduction of ketone to alcohol

> <Reaction_ID>
BTMR1171

> <Enzyme(s)>
CYP2C9

> <Biosystem>
HUMAN

> <Precursor_ID>
TEST0058_TSAHC

> <Precursor_SMILES>
S(=O)(=O)(NC1=CC=C(C=C1)C(=O)/C=C/C2=CC=C(O)C=C2)C3=CC=C(C=C3)C

> <Precursor_InChI>
InChI=1S/C22H19NO4S/c1-16-2-13-21(14-3-16)28(26,27)23-19-9-7-18(8-10-19)22(25)15-6-17-4-11-20(24)12-5-17/h2-15,23-24H,1H3/b15-6+

> <Precursor_InChIKey>
KDODYFOOJCIHGK-GIDUJCDVSA-N

> <Precursor_ALogP>
4.408500

> <Precursor_Major_Isotope_Mass>
393.1034

$$$$
BTM00007
  CDK     08072416552D

 29 31  0  0  0  0  0  0  0  0999 V2000
   -5.0649   -1.5989    0.0000 S   0  0  0  0  0  0  0  0  0  0  0  0
   -6.0293   -2.7478    0.0000 O   0  0  0  0  0  0  0  0  0  0  0  0
   -4.1009   -2.7481    0.0000 O   0  0  0  0  0  0  0  0  0  0  0  0
   -3.7658   -0.8491    0.0000 N   0  0  0  0  0  0  0  0  0  0  0  0
   -2.4669   -1.5993    0.0000 C   0  0  0  0  0  0  0  0  0  0  0  0
   -1.1669   -0.8493    0.0000 C   0  0  0  0  0  0  0  0  0  0  0  0
    0.1331   -1.5993    0.0000 C   0  0  0  0  0  0  0  0  0  0  0  0
    0.1331   -3.0993    0.0000 C   0  0  0  0  0  0  0  0  0  0  0  0
   -1.1669   -3.8493    0.0000 C   0  0  0  0  0  0  0  0  0  0  0  0
   -2.4669   -3.0993    0.0000 C   0  0  0  0  0  0  0  0  0  0  0  0
    1.4321   -3.8495    0.0000 C   0  0  0  0  0  0  0  0  0  0  0  0
    1.4318   -5.3495    0.0000 O   0  0  0  0  0  0  0  0  0  0  0  0
    2.7312   -3.0997    0.0000 C   0  0  0  0  0  0  0  0  0  0  0  0
    4.0301   -3.8499    0.0000 C   0  0  0  0  0  0  0  0  0  0  0  0
    5.3293   -3.1001    0.0000 C   0  0  0  0  0  0  0  0  0  0  0  0
    5.3221   -1.6001    0.0000 C   0  0  0  0  0  0  0  0  0  0  0  0
    6.5886   -0.8441    0.0000 C   0  0  0  0  0  0  0  0  0  0  0  0
    7.9421   -1.5877    0.0000 C   0  0  0  0  0  0  0  0  0  0  0  0
    9.2313   -0.8208    0.0000 O   0  0  0  0  0  0  0  0  0  0  0  0
    7.9493   -3.0877    0.0000 C   0  0  0  0  0  0  0  0  0  0  0  0
    6.6028   -3.8441    0.0000 C   0  0  0  0  0  0  0  0  0  0  0  0
   -6.0289   -0.4497    0.0000 C   0  0  0  0  0  0  0  0  0  0  0  0
   -7.5062   -0.7097    0.0000 C   0  0  0  0  0  0  0  0  0  0  0  0
   -8.4702    0.4407    0.0000 C   0  0  0  0  0  0  0  0  0  0  0  0
   -7.9569    1.8510    0.0000 C   0  0  0  0  0  0  0  0  0  0  0  0
   -6.4796    2.1110    0.0000 C   0  0  0  0  0  0  0  0  0  0  0  0
   -5.5156    0.9607    0.0000 C   0  0  0  0  0  0  0  0  0  0  0  0
   -8.9209    3.0002    0.0000 C   0  0  0  0  0  0  0  0  0  0  0  0
  -10.3981    2.7400    0.0000 O   0  0  0  0  0  0  0  0  0  0  0  0
  1  2  2  0  0  0  0
  1  3  2  0  0  0  0
  1  4  1  0  0  0  0
  4  5  1  0  0  0  0
  5  6  2  0  0  0  0
  6  7  1  0  0  0  0
  7  8  2  0  0  0  0
  8  9  1  0  0  0  0
  9 10  2  0  0  0  0
  5 10  1  0  0  0  0
  8 11  1  0  0  0  0
 11 12  2  0  0  0  0
 11 13  1  4  0  0  0
 13 14  2  0  0  0  0
 14 15  1  0  0  0  0
 15 16  2  0  0  0  0
 16 17  1  0  0  0  0
 17 18  2  0  0  0  0
 18 19  1  0  0  0  0
 18 20  1  0  0  0  0
 20 21  2  0  0  0  0
 15 21  1  0  0  0  0
  1 22  1  0  0  0  0
 22 23  2  0  0  0  0
 23 24  1  0  0  0  0
 24 25  2  0  0  0  0
 25 26  1  0  0  0  0
 26 27  2  0  0  0  0
 22 27  1  0  0  0  0
 25 28  1  0  0  0  0
 28 29  1  0  0  0  0
M  END
> <InChI>
InChI=1S/C22H19NO5S/c24-15-17-3-12-21(13-4-17)29(27,28)23-19-8-6-18(7-9-19)22(26)14-5-16-1-10-20(25)11-2-16/h1-14,23-25H,15H2

> <InChIKey>
CZAUUEPUFWKXTK-UHFFFAOYSA-N

> <SMILES>
S(=O)(=O)(NC1=CC=C(C=C1)C(=O)C=CC2=CC=C(O)C=C2)C3=CC=C(C=C3)CO

> <Synonyms>


> <PUBCHEM_CID>


> <Molecular_formula>
C22H19NO5S

> <Major_Isotope_Mass>
409.098393708

> <ALogP>
3.317800000000001

> <Lipinski_Violations>
0

> <Insecticide_Likeness_Violations>
1

> <Post_Em_Herbicide_Likeness_Violations>
1

> <Metabolite_ID>
BTM00007

> <Reaction>
Hydroxylation from CyProduct

> <Reaction_ID>
BTMR1328

> <Enzyme(s)>
CYP1A2
CYP2C8
CYP2C9
CYP2D6
CYP3A4

> <Biosystem>
HUMAN

> <Precursor_ID>
TEST0058_TSAHC

> <Precursor_SMILES>
S(=O)(=O)(NC1=CC=C(C=C1)C(=O)/C=C/C2=CC=C(O)C=C2)C3=CC=C(C=C3)C

> <Precursor_InChI>
InChI=1S/C22H19NO4S/c1-16-2-13-21(14-3-16)28(26,27)23-19-9-7-18(8-10-19)22(25)15-6-17-4-11-20(24)12-5-17/h2-15,23-24H,1H3/b15-6+

> <Precursor_InChIKey>
KDODYFOOJCIHGK-GIDUJCDVSA-N

> <Precursor_ALogP>
4.408500

> <Precursor_Major_Isotope_Mass>
393.1034

$$$$
