BTM00001
  CDK     08072416522D

 22 21  0  0  0  0  0  0  0  0999 V2000
   -0.7116    7.1716    0.0000 F   0  0  0  0  0  0  0  0  0  0  0  0
   -1.6758    6.0225    0.0000 C   0  0  0  0  0  0  0  0  0  0  0  0
   -2.6400    7.1716    0.0000 F   0  0  0  0  0  0  0  0  0  0  0  0
    0.0390    5.0325    0.0000 C   0  0  0  0  0  0  0  0  0  0  0  0
   -0.9252    3.8834    0.0000 F   0  0  0  0  0  0  0  0  0  0  0  0
    1.0031    3.8834    0.0000 F   0  0  0  0  0  0  0  0  0  0  0  0
    1.3380    5.7825    0.0000 C   0  0  0  0  0  0  0  0  0  0  0  0
    2.8152    6.0430    0.0000 F   0  0  0  0  0  0  0  0  0  0  0  0
    1.8510    4.3730    0.0000 F   0  0  0  0  0  0  0  0  0  0  0  0
    1.3380    7.2825    0.0000 C   0  0  0  0  0  0  0  0  0  0  0  0
    2.6370    8.0325    0.0000 C   0  0  0  0  0  0  0  0  0  0  0  0
    2.6370    9.5325    0.0000 O   0  0  0  0  0  0  0  0  0  0  0  0
   -3.3905    5.0325    0.0000 C   0  0  0  0  0  0  0  0  0  0  0  0
   -4.3547    3.8834    0.0000 F   0  0  0  0  0  0  0  0  0  0  0  0
   -2.4263    3.8834    0.0000 F   0  0  0  0  0  0  0  0  0  0  0  0
   -4.6895    5.7825    0.0000 C   0  0  0  0  0  0  0  0  0  0  0  0
   -3.7254    6.9316    0.0000 F   0  0  0  0  0  0  0  0  0  0  0  0
   -5.6537    6.9316    0.0000 F   0  0  0  0  0  0  0  0  0  0  0  0
   -5.9886    5.0325    0.0000 C   0  0  0  0  0  0  0  0  0  0  0  0
   -6.7386    6.3315    0.0000 F   0  0  0  0  0  0  0  0  0  0  0  0
   -7.2876    4.2825    0.0000 F   0  0  0  0  0  0  0  0  0  0  0  0
   -5.2386    3.7335    0.0000 F   0  0  0  0  0  0  0  0  0  0  0  0
  1  2  1  0  0  0  0
  2  3  1  0  0  0  0
  2  4  1  0  0  0  0
  4  5  1  0  0  0  0
  4  6  1  0  0  0  0
  4  7  1  0  0  0  0
  7  8  1  0  0  0  0
  7  9  1  0  0  0  0
  7 10  1  0  0  0  0
 10 11  1  0  0  0  0
 11 12  2  0  0  0  0
  2 13  1  0  0  0  0
 13 14  1  0  0  0  0
 13 15  1  0  0  0  0
 13 16  1  0  0  0  0
 16 17  1  0  0  0  0
 16 18  1  0  0  0  0
 16 19  1  0  0  0  0
 19 20  1  0  0  0  0
 19 21  1  0  0  0  0
 19 22  1  0  0  0  0
M  END
> <InChI>
InChI=1S/C8H3F13O/c9-3(10,1-2-22)4(11,12)5(13,14)6(15,16)7(17,18)8(19,20)21/h2H,1H2

> <InChIKey>
WJSFZGPTEQNWCB-UHFFFAOYSA-N

> <SMILES>
FC(F)(C(F)(F)C(F)(F)CC=O)C(F)(F)C(F)(F)C(F)(F)F

> <Synonyms>


> <PUBCHEM_CID>


> <Molecular_formula>
C8H3F13O

> <Major_Isotope_Mass>
361.99763157599995

> <ALogP>
3.3985

> <Lipinski_Violations>
1

> <Insecticide_Likeness_Violations>
0

> <Post_Em_Herbicide_Likeness_Violations>
0

> <Metabolite_ID>
BTM00001

> <Reaction>
Oxidation of primary alcohol to aldehyde

> <Reaction_ID>
BTMR0105

> <Enzyme(s)>
CYP1A2
CYP2E1
CYP3A4

> <Biosystem>
HUMAN

> <Precursor_ID>
TEST0040_6:2 FTOH

> <Precursor_SMILES>
FC(F)(C(F)(F)C(F)(F)CCO)C(F)(F)C(F)(F)C(F)(F)F

> <Precursor_InChI>
InChI=1S/C8H5F13O/c9-3(10,1-2-22)4(11,12)5(13,14)6(15,16)7(17,18)8(19,20)21/h22H,1-2H2

> <Precursor_InChIKey>
GRJRKPMIRMSBNK-UHFFFAOYSA-N

> <Precursor_ALogP>
3.363000

> <Precursor_Major_Isotope_Mass>
364.0132

$$$$
BTM00002
  CDK     08072416522D

 23 22  0  0  0  0  0  0  0  0999 V2000
   -3.4585    2.9699    0.0000 F   0  0  0  0  0  0  0  0  0  0  0  0
   -2.4943    4.1189    0.0000 C   0  0  0  0  0  0  0  0  0  0  0  0
   -1.5302    2.9699    0.0000 F   0  0  0  0  0  0  0  0  0  0  0  0
   -4.2091    5.1089    0.0000 C   0  0  0  0  0  0  0  0  0  0  0  0
   -3.2449    6.2580    0.0000 F   0  0  0  0  0  0  0  0  0  0  0  0
   -5.1733    6.2580    0.0000 F   0  0  0  0  0  0  0  0  0  0  0  0
   -5.5081    4.3589    0.0000 C   0  0  0  0  0  0  0  0  0  0  0  0
   -6.4723    3.2099    0.0000 F   0  0  0  0  0  0  0  0  0  0  0  0
   -4.5439    3.2099    0.0000 F   0  0  0  0  0  0  0  0  0  0  0  0
   -6.8071    5.1089    0.0000 C   0  0  0  0  0  0  0  0  0  0  0  0
   -8.1062    4.3589    0.0000 C   0  0  0  0  0  0  0  0  0  0  0  0
   -9.4052    5.1089    0.0000 O   0  0  0  0  0  0  0  0  0  0  0  0
   -6.8071    6.6089    0.0000 O   0  0  0  0  0  0  0  0  0  0  0  0
   -0.7796    5.1089    0.0000 C   0  0  0  0  0  0  0  0  0  0  0  0
    0.1846    6.2580    0.0000 F   0  0  0  0  0  0  0  0  0  0  0  0
   -1.7438    6.2580    0.0000 F   0  0  0  0  0  0  0  0  0  0  0  0
    0.5194    4.3589    0.0000 C   0  0  0  0  0  0  0  0  0  0  0  0
   -0.4448    3.2099    0.0000 F   0  0  0  0  0  0  0  0  0  0  0  0
    1.4836    3.2099    0.0000 F   0  0  0  0  0  0  0  0  0  0  0  0
    1.8185    5.1089    0.0000 C   0  0  0  0  0  0  0  0  0  0  0  0
    2.5685    3.8099    0.0000 F   0  0  0  0  0  0  0  0  0  0  0  0
    3.1175    5.8589    0.0000 F   0  0  0  0  0  0  0  0  0  0  0  0
    1.0685    6.4080    0.0000 F   0  0  0  0  0  0  0  0  0  0  0  0
  1  2  1  0  0  0  0
  2  3  1  0  0  0  0
  2  4  1  0  0  0  0
  4  5  1  0  0  0  0
  4  6  1  0  0  0  0
  4  7  1  0  0  0  0
  7  8  1  0  0  0  0
  7  9  1  0  0  0  0
  7 10  1  0  0  0  0
 10 11  1  0  0  0  0
 11 12  1  0  0  0  0
 10 13  1  0  0  0  0
  2 14  1  0  0  0  0
 14 15  1  0  0  0  0
 14 16  1  0  0  0  0
 14 17  1  0  0  0  0
 17 18  1  0  0  0  0
 17 19  1  0  0  0  0
 17 20  1  0  0  0  0
 20 21  1  0  0  0  0
 20 22  1  0  0  0  0
 20 23  1  0  0  0  0
M  END
> <InChI>
InChI=1S/C8H5F13O2/c9-3(10,2(23)1-22)4(11,12)5(13,14)6(15,16)7(17,18)8(19,20)21/h2,22-23H,1H2

> <InChIKey>
OCFQEBCFMDZJGI-UHFFFAOYSA-N

> <SMILES>
FC(F)(C(F)(F)C(F)(F)C(CO)O)C(F)(F)C(F)(F)C(F)(F)F

> <Synonyms>


> <PUBCHEM_CID>


> <Molecular_formula>
C8H5F13O2

> <Major_Isotope_Mass>
380.00819626000003

> <ALogP>
2.5967000000000002

> <Lipinski_Violations>
0

> <Insecticide_Likeness_Violations>
0

> <Post_Em_Herbicide_Likeness_Violations>
0

> <Metabolite_ID>
BTM00002

> <Reaction>
Hydroxylation from CyProduct

> <Reaction_ID>
BTMR1328

> <Enzyme(s)>
CYP2B6

> <Biosystem>
HUMAN

> <Precursor_ID>
TEST0040_6:2 FTOH

> <Precursor_SMILES>
FC(F)(C(F)(F)C(F)(F)CCO)C(F)(F)C(F)(F)C(F)(F)F

> <Precursor_InChI>
InChI=1S/C8H5F13O/c9-3(10,1-2-22)4(11,12)5(13,14)6(15,16)7(17,18)8(19,20)21/h22H,1-2H2

> <Precursor_InChIKey>
GRJRKPMIRMSBNK-UHFFFAOYSA-N

> <Precursor_ALogP>
3.363000

> <Precursor_Major_Isotope_Mass>
364.0132

$$$$
