BTM00001
  CDK     08072417002D

 25 28  0  0  1  0  0  0  0  0999 V2000
   -7.5106   -5.2506    0.0000 F   0  0  0  0  0  0  0  0  0  0  0  0
   -7.5099   -3.7506    0.0000 C   0  0  0  0  0  0  0  0  0  0  0  0
   -6.2099   -3.0006    0.0000 C   0  0  0  0  0  0  0  0  0  0  0  0
   -6.2084   -1.4998    0.0000 C   0  0  0  0  0  0  0  0  0  0  0  0
   -7.5070   -0.7490    0.0000 C   0  0  0  0  0  0  0  0  0  0  0  0
   -8.8070   -1.4990    0.0000 C   0  0  0  0  0  0  0  0  0  0  0  0
   -8.8084   -2.9998    0.0000 C   0  0  0  0  0  0  0  0  0  0  0  0
   -7.5063    0.7510    0.0000 C   0  0  2  0  0  0  0  0  0  0  0  0
   -8.8056    1.5023    0.0000 C   0  0  0  0  0  0  0  0  0  0  0  0
   -8.8056    3.0031    0.0000 C   0  0  0  0  0  0  0  0  0  0  0  0
   -7.5063    3.7527    0.0000 N   0  0  0  0  0  0  0  0  0  0  0  0
   -6.2070    3.0015    0.0000 C   0  0  0  0  0  0  0  0  0  0  0  0
   -6.2070    1.5006    0.0000 C   0  0  1  0  0  0  0  0  0  0  0  0
   -4.9081    0.7504    0.0000 C   0  0  0  0  0  0  0  0  0  0  0  0
   -3.6089    1.5002    0.0000 O   0  0  0  0  0  0  0  0  0  0  0  0
   -2.3100    0.7500    0.0000 C   0  0  0  0  0  0  0  0  0  0  0  0
   -1.0100    1.5000    0.0000 C   0  0  0  0  0  0  0  0  0  0  0  0
    0.2900    0.7500    0.0000 C   0  0  0  0  0  0  0  0  0  0  0  0
    0.2900   -0.7500    0.0000 C   0  0  0  0  0  0  0  0  0  0  0  0
    1.7200   -1.2100    0.0000 O   0  0  0  0  0  0  0  0  0  0  0  0
    2.6000   -0.0000    0.0000 C   0  0  0  0  0  0  0  0  0  0  0  0
    1.7200    1.2100    0.0000 O   0  0  0  0  0  0  0  0  0  0  0  0
   -1.0100   -1.5000    0.0000 C   0  0  0  0  0  0  0  0  0  0  0  0
   -2.3100   -0.7500    0.0000 C   0  0  0  0  0  0  0  0  0  0  0  0
   -3.6089   -1.5002    0.0000 O   0  0  0  0  0  0  0  0  0  0  0  0
  1  2  1  0  0  0  0
  2  3  2  0  0  0  0
  3  4  1  0  0  0  0
  4  5  2  0  0  0  0
  5  6  1  0  0  0  0
  6  7  2  0  0  0  0
  2  7  1  0  0  0  0
  8  5  1  6  0  0  0
  8  9  1  0  0  0  0
  9 10  1  0  0  0  0
 10 11  1  0  0  0  0
 11 12  1  0  0  0  0
 12 13  1  0  0  0  0
  8 13  1  0  0  0  0
 13 14  1  1  0  0  0
 14 15  1  0  0  0  0
 15 16  1  0  0  0  0
 16 17  2  0  0  0  0
 17 18  1  0  0  0  0
 18 19  2  0  0  0  0
 19 20  1  0  0  0  0
 20 21  1  0  0  0  0
 21 22  1  0  0  0  0
 18 22  1  0  0  0  0
 19 23  1  0  0  0  0
 23 24  2  0  0  0  0
 16 24  1  0  0  0  0
 25 24  1  0  0  0  0
M  END
> <InChI>
InChI=1S/C19H20FNO4/c20-14-3-1-12(2-4-14)15-5-6-21-9-13(15)10-23-17-8-19-18(7-16(17)22)24-11-25-19/h1-4,7-8,13,15,21-22H,5-6,9-11H2/t13-,15-/m0/s1

> <InChIKey>
RGCFVCGHEDVSLM-ZFWWWQNUSA-N

> <SMILES>
FC1=CC=C(C=C1)[C@@H]2CCNC[C@H]2COC3=CC4=C(OCO4)C=C3O

> <Synonyms>


> <PUBCHEM_CID>


> <Molecular_formula>
C19H20FNO4

> <Major_Isotope_Mass>
345.13763634000003

> <ALogP>
2.962399999999999

> <Lipinski_Violations>
0

> <Insecticide_Likeness_Violations>
0

> <Post_Em_Herbicide_Likeness_Violations>
0

> <Metabolite_ID>
BTM00001

> <Reaction>
Aromatic hydroxylation of fused benzene ring

> <Reaction_ID>
BTMR1030

> <Enzyme(s)>
CYP1A2
CYP2A6
CYP2B6
CYP2C8
CYP2C9
CYP2C19
CYP2D6
CYP2E1
CYP3A4

> <Biosystem>
HUMAN

> <Precursor_ID>
TEST0094_Paroxetine

> <Precursor_SMILES>
FC1=CC=C(C=C1)[C@@H]2CCNC[C@H]2COC3=CC4=C(OCO4)C=C3

> <Precursor_InChI>
InChI=1S/C19H20FNO3/c20-15-3-1-13(2-4-15)17-7-8-21-10-14(17)11-22-16-5-6-18-19(9-16)24-12-23-18/h1-6,9,14,17,21H,7-8,10-12H2/t14-,17-/m0/s1

> <Precursor_InChIKey>
AHOUBRCZNHFOSL-YOEHRIQHSA-N

> <Precursor_ALogP>
3.229800

> <Precursor_Major_Isotope_Mass>
329.1427

$$$$
BTM00002
  CDK     08072417002D

 15 16  0  0  1  0  0  0  0  0999 V2000
    4.5481    6.3750    0.0000 F   0  0  0  0  0  0  0  0  0  0  0  0
    3.2490    5.6250    0.0000 C   0  0  0  0  0  0  0  0  0  0  0  0
    1.9492    6.3752    0.0000 C   0  0  0  0  0  0  0  0  0  0  0  0
    0.6490    5.6254    0.0000 C   0  0  0  0  0  0  0  0  0  0  0  0
    0.6488    4.1254    0.0000 C   0  0  0  0  0  0  0  0  0  0  0  0
    1.9487    3.3752    0.0000 C   0  0  0  0  0  0  0  0  0  0  0  0
    3.2488    4.1250    0.0000 C   0  0  0  0  0  0  0  0  0  0  0  0
   -0.6502    3.3754    0.0000 C   0  0  2  0  0  0  0  0  0  0  0  0
   -1.9498    4.1262    0.0000 C   0  0  0  0  0  0  0  0  0  0  0  0
   -3.2488    3.3762    0.0000 C   0  0  0  0  0  0  0  0  0  0  0  0
   -3.2483    1.8754    0.0000 N   0  0  0  0  0  0  0  0  0  0  0  0
   -1.9488    1.1246    0.0000 C   0  0  0  0  0  0  0  0  0  0  0  0
   -0.6498    1.8746    0.0000 C   0  0  1  0  0  0  0  0  0  0  0  0
    0.6494    1.1248    0.0000 C   0  0  0  0  0  0  0  0  0  0  0  0
    0.6496   -0.3752    0.0000 O   0  0  0  0  0  0  0  0  0  0  0  0
  1  2  1  0  0  0  0
  2  3  2  0  0  0  0
  3  4  1  0  0  0  0
  4  5  2  0  0  0  0
  5  6  1  0  0  0  0
  6  7  2  0  0  0  0
  2  7  1  0  0  0  0
  8  5  1  1  0  0  0
  8  9  1  0  0  0  0
  9 10  1  0  0  0  0
 10 11  1  0  0  0  0
 11 12  1  0  0  0  0
 12 13  1  0  0  0  0
  8 13  1  0  0  0  0
 13 14  1  6  0  0  0
 14 15  2  0  0  0  0
M  END
> <InChI>
InChI=1S/C12H14FNO/c13-11-3-1-9(2-4-11)12-5-6-14-7-10(12)8-15/h1-4,8,10,12,14H,5-7H2/t10-,12-/m0/s1

> <InChIKey>
HUJDSONDNOQTLC-JQWIXIFHSA-N

> <SMILES>
FC1=CC=C(C=C1)[C@@H]2CCNC[C@H]2C=O

> <Synonyms>


> <PUBCHEM_CID>


> <Molecular_formula>
C12H14FNO

> <Major_Isotope_Mass>
207.105942288

> <ALogP>
1.532600000000001

> <Lipinski_Violations>
0

> <Insecticide_Likeness_Violations>
0

> <Post_Em_Herbicide_Likeness_Violations>
0

> <Metabolite_ID>
BTM00002

> <Reaction>
O-Dealkylation

> <Reaction_ID>
BTMR0052

> <Enzyme(s)>
CYP1A2
CYP2A6
CYP2C9
CYP2C19
CYP2D6
CYP2E1
CYP3A4

> <Biosystem>
HUMAN

> <Precursor_ID>
TEST0094_Paroxetine

> <Precursor_SMILES>
FC1=CC=C(C=C1)[C@@H]2CCNC[C@H]2COC3=CC4=C(OCO4)C=C3

> <Precursor_InChI>
InChI=1S/C19H20FNO3/c20-15-3-1-13(2-4-15)17-7-8-21-10-14(17)11-22-16-5-6-18-19(9-16)24-12-23-18/h1-6,9,14,17,21H,7-8,10-12H2/t14-,17-/m0/s1

> <Precursor_InChIKey>
AHOUBRCZNHFOSL-YOEHRIQHSA-N

> <Precursor_ALogP>
3.229800

> <Precursor_Major_Isotope_Mass>
329.1427

$$$$
BTM00003
  CDK     08072417002D

 10 11  0  0  0  0  0  0  0  0999 V2000
   -3.6089    1.5002    0.0000 O   0  0  0  0  0  0  0  0  0  0  0  0
   -2.3100    0.7500    0.0000 C   0  0  0  0  0  0  0  0  0  0  0  0
   -1.0100    1.5000    0.0000 C   0  0  0  0  0  0  0  0  0  0  0  0
    0.2900    0.7500    0.0000 C   0  0  0  0  0  0  0  0  0  0  0  0
    0.2900   -0.7500    0.0000 C   0  0  0  0  0  0  0  0  0  0  0  0
    1.7200   -1.2100    0.0000 O   0  0  0  0  0  0  0  0  0  0  0  0
    2.6000   -0.0000    0.0000 C   0  0  0  0  0  0  0  0  0  0  0  0
    1.7200    1.2100    0.0000 O   0  0  0  0  0  0  0  0  0  0  0  0
   -1.0100   -1.5000    0.0000 C   0  0  0  0  0  0  0  0  0  0  0  0
   -2.3100   -0.7500    0.0000 C   0  0  0  0  0  0  0  0  0  0  0  0
  1  2  1  0  0  0  0
  2  3  2  0  0  0  0
  3  4  1  0  0  0  0
  4  5  2  0  0  0  0
  5  6  1  0  0  0  0
  6  7  1  0  0  0  0
  7  8  1  0  0  0  0
  4  8  1  0  0  0  0
  5  9  1  0  0  0  0
  9 10  2  0  0  0  0
  2 10  1  0  0  0  0
M  END
> <InChI>
InChI=1S/C7H6O3/c8-5-1-2-6-7(3-5)10-4-9-6/h1-3,8H,4H2

> <InChIKey>
LUSZGTFNYDARNI-UHFFFAOYSA-N

> <SMILES>
OC1=CC2=C(OCO2)C=C1

> <Synonyms>


> <PUBCHEM_CID>


> <Molecular_formula>
C7H6O3

> <Major_Isotope_Mass>
138.03169405199998

> <ALogP>
1.3307000000000002

> <Lipinski_Violations>
0

> <Insecticide_Likeness_Violations>
0

> <Post_Em_Herbicide_Likeness_Violations>
0

> <Metabolite_ID>
BTM00003

> <Reaction>
O-Dealkylation

> <Reaction_ID>
BTMR0052

> <Enzyme(s)>
CYP1A2
CYP2A6
CYP2C9
CYP2C19
CYP2D6
CYP2E1
CYP3A4

> <Biosystem>
HUMAN

> <Precursor_ID>
TEST0094_Paroxetine

> <Precursor_SMILES>
FC1=CC=C(C=C1)[C@@H]2CCNC[C@H]2COC3=CC4=C(OCO4)C=C3

> <Precursor_InChI>
InChI=1S/C19H20FNO3/c20-15-3-1-13(2-4-15)17-7-8-21-10-14(17)11-22-16-5-6-18-19(9-16)24-12-23-18/h1-6,9,14,17,21H,7-8,10-12H2/t14-,17-/m0/s1

> <Precursor_InChIKey>
AHOUBRCZNHFOSL-YOEHRIQHSA-N

> <Precursor_ALogP>
3.229800

> <Precursor_Major_Isotope_Mass>
329.1427

$$$$
BTM00004
  CDK     08072417002D

 25 28  0  0  1  0  0  0  0  0999 V2000
   -1.0077    5.9994    0.0000 F   0  0  0  0  0  0  0  0  0  0  0  0
   -2.3070    5.2498    0.0000 C   0  0  0  0  0  0  0  0  0  0  0  0
   -3.6066    6.0004    0.0000 C   0  0  0  0  0  0  0  0  0  0  0  0
   -4.9070    5.2510    0.0000 C   0  0  0  0  0  0  0  0  0  0  0  0
   -4.9077    3.7510    0.0000 C   0  0  0  0  0  0  0  0  0  0  0  0
   -3.6081    3.0004    0.0000 C   0  0  0  0  0  0  0  0  0  0  0  0
   -2.3077    3.7498    0.0000 C   0  0  0  0  0  0  0  0  0  0  0  0
   -6.2070    3.0015    0.0000 C   0  0  2  0  0  0  0  0  0  0  0  0
   -7.5063    3.7527    0.0000 C   0  0  0  0  0  0  0  0  0  0  0  0
   -8.8056    3.0031    0.0000 C   0  0  0  0  0  0  0  0  0  0  0  0
   -8.8056    1.5023    0.0000 N   0  0  0  0  0  0  0  0  0  0  0  0
   -7.5063    0.7510    0.0000 C   0  0  0  0  0  0  0  0  0  0  0  0
   -6.2070    1.5006    0.0000 C   0  0  1  0  0  0  0  0  0  0  0  0
   -4.9081    0.7504    0.0000 C   0  0  0  0  0  0  0  0  0  0  0  0
   -3.6089    1.5002    0.0000 O   0  0  0  0  0  0  0  0  0  0  0  0
   -2.3100    0.7500    0.0000 C   0  0  0  0  0  0  0  0  0  0  0  0
   -1.0100    1.5000    0.0000 C   0  0  0  0  0  0  0  0  0  0  0  0
    0.2900    0.7500    0.0000 C   0  0  0  0  0  0  0  0  0  0  0  0
    0.2900   -0.7500    0.0000 C   0  0  0  0  0  0  0  0  0  0  0  0
    1.7200   -1.2100    0.0000 O   0  0  0  0  0  0  0  0  0  0  0  0
    2.6000   -0.0000    0.0000 C   0  0  0  0  0  0  0  0  0  0  0  0
    1.7200    1.2100    0.0000 O   0  0  0  0  0  0  0  0  0  0  0  0
   -1.0100   -1.5000    0.0000 C   0  0  0  0  0  0  0  0  0  0  0  0
   -2.3100   -0.7500    0.0000 C   0  0  0  0  0  0  0  0  0  0  0  0
  -10.1045    3.7533    0.0000 O   0  0  0  0  0  0  0  0  0  0  0  0
  1  2  1  0  0  0  0
  2  3  2  0  0  0  0
  3  4  1  0  0  0  0
  4  5  2  0  0  0  0
  5  6  1  0  0  0  0
  6  7  2  0  0  0  0
  2  7  1  0  0  0  0
  8  5  1  1  0  0  0
  8  9  1  0  0  0  0
  9 10  1  0  0  0  0
 10 11  1  0  0  0  0
 11 12  1  0  0  0  0
 12 13  1  0  0  0  0
  8 13  1  0  0  0  0
 13 14  1  6  0  0  0
 14 15  1  0  0  0  0
 15 16  1  0  0  0  0
 16 17  2  0  0  0  0
 17 18  1  0  0  0  0
 18 19  2  0  0  0  0
 19 20  1  0  0  0  0
 20 21  1  0  0  0  0
 21 22  1  0  0  0  0
 18 22  1  0  0  0  0
 19 23  1  0  0  0  0
 23 24  2  0  0  0  0
 16 24  1  0  0  0  0
 25 10  1  0  0  0  0
M  END
> <InChI>
InChI=1S/C19H20FNO4/c20-14-3-1-12(2-4-14)16-8-19(22)21-9-13(16)10-23-15-5-6-17-18(7-15)25-11-24-17/h1-7,13,16,19,21-22H,8-11H2/t13-,16-,19?/m0/s1

> <InChIKey>
XYSXCHDQGRISHQ-OHWIQJHBSA-N

> <SMILES>
FC1=CC=C(C=C1)[C@@H]2CC(NC[C@H]2COC3=CC4=C(OCO4)C=C3)O

> <Synonyms>


> <PUBCHEM_CID>


> <Molecular_formula>
C19H20FNO4

> <Major_Isotope_Mass>
345.13763634000003

> <ALogP>
2.6312999999999995

> <Lipinski_Violations>
0

> <Insecticide_Likeness_Violations>
0

> <Post_Em_Herbicide_Likeness_Violations>
0

> <Metabolite_ID>
BTM00004

> <Reaction>
Hydroxylation of heteroalicyclic secondary carbon

> <Reaction_ID>
BTMR1070

> <Enzyme(s)>
CYP1A2
CYP2A6
CYP2C9
CYP2D6
CYP3A4

> <Biosystem>
HUMAN

> <Precursor_ID>
TEST0094_Paroxetine

> <Precursor_SMILES>
FC1=CC=C(C=C1)[C@@H]2CCNC[C@H]2COC3=CC4=C(OCO4)C=C3

> <Precursor_InChI>
InChI=1S/C19H20FNO3/c20-15-3-1-13(2-4-15)17-7-8-21-10-14(17)11-22-16-5-6-18-19(9-16)24-12-23-18/h1-6,9,14,17,21H,7-8,10-12H2/t14-,17-/m0/s1

> <Precursor_InChIKey>
AHOUBRCZNHFOSL-YOEHRIQHSA-N

> <Precursor_ALogP>
3.229800

> <Precursor_Major_Isotope_Mass>
329.1427

$$$$
BTM00005
  CDK     08072417002D

 25 28  0  0  1  0  0  0  0  0999 V2000
   -1.0077    5.9994    0.0000 F   0  0  0  0  0  0  0  0  0  0  0  0
   -2.3070    5.2498    0.0000 C   0  0  0  0  0  0  0  0  0  0  0  0
   -3.6066    6.0004    0.0000 C   0  0  0  0  0  0  0  0  0  0  0  0
   -4.9070    5.2510    0.0000 C   0  0  0  0  0  0  0  0  0  0  0  0
   -4.9077    3.7510    0.0000 C   0  0  0  0  0  0  0  0  0  0  0  0
   -3.6081    3.0004    0.0000 C   0  0  0  0  0  0  0  0  0  0  0  0
   -2.3077    3.7498    0.0000 C   0  0  0  0  0  0  0  0  0  0  0  0
   -6.2070    3.0015    0.0000 C   0  0  2  0  0  0  0  0  0  0  0  0
   -7.5063    3.7527    0.0000 C   0  0  0  0  0  0  0  0  0  0  0  0
   -8.8056    3.0031    0.0000 C   0  0  0  0  0  0  0  0  0  0  0  0
   -8.8056    1.5023    0.0000 N   0  0  0  0  0  0  0  0  0  0  0  0
   -7.5063    0.7510    0.0000 C   0  0  0  0  0  0  0  0  0  0  0  0
   -6.2070    1.5006    0.0000 C   0  0  1  0  0  0  0  0  0  0  0  0
   -4.9081    0.7504    0.0000 C   0  0  0  0  0  0  0  0  0  0  0  0
   -3.6089    1.5002    0.0000 O   0  0  0  0  0  0  0  0  0  0  0  0
   -2.3100    0.7500    0.0000 C   0  0  0  0  0  0  0  0  0  0  0  0
   -1.0100    1.5000    0.0000 C   0  0  0  0  0  0  0  0  0  0  0  0
    0.2900    0.7500    0.0000 C   0  0  0  0  0  0  0  0  0  0  0  0
    0.2900   -0.7500    0.0000 C   0  0  0  0  0  0  0  0  0  0  0  0
    1.7200   -1.2100    0.0000 O   0  0  0  0  0  0  0  0  0  0  0  0
    2.6000   -0.0000    0.0000 C   0  0  0  0  0  0  0  0  0  0  0  0
    1.7200    1.2100    0.0000 O   0  0  0  0  0  0  0  0  0  0  0  0
   -1.0100   -1.5000    0.0000 C   0  0  0  0  0  0  0  0  0  0  0  0
   -2.3100   -0.7500    0.0000 C   0  0  0  0  0  0  0  0  0  0  0  0
   -7.5070   -0.7490    0.0000 O   0  0  0  0  0  0  0  0  0  0  0  0
  1  2  1  0  0  0  0
  2  3  2  0  0  0  0
  3  4  1  0  0  0  0
  4  5  2  0  0  0  0
  5  6  1  0  0  0  0
  6  7  2  0  0  0  0
  2  7  1  0  0  0  0
  8  5  1  1  0  0  0
  8  9  1  0  0  0  0
  9 10  1  0  0  0  0
 10 11  1  0  0  0  0
 11 12  1  0  0  0  0
 12 13  1  0  0  0  0
  8 13  1  0  0  0  0
 13 14  1  6  0  0  0
 14 15  1  0  0  0  0
 15 16  1  0  0  0  0
 16 17  2  0  0  0  0
 17 18  1  0  0  0  0
 18 19  2  0  0  0  0
 19 20  1  0  0  0  0
 20 21  1  0  0  0  0
 21 22  1  0  0  0  0
 18 22  1  0  0  0  0
 19 23  1  0  0  0  0
 23 24  2  0  0  0  0
 16 24  1  0  0  0  0
 25 12  1  0  0  0  0
M  END
> <InChI>
InChI=1S/C19H20FNO4/c20-13-3-1-12(2-4-13)15-7-8-21-19(22)16(15)10-23-14-5-6-17-18(9-14)25-11-24-17/h1-6,9,15-16,19,21-22H,7-8,10-11H2/t15-,16-,19?/m0/s1

> <InChIKey>
PETBMEDVDOPITM-NRAVZPKASA-N

> <SMILES>
FC1=CC=C(C=C1)[C@@H]2CCNC([C@H]2COC3=CC4=C(OCO4)C=C3)O

> <Synonyms>


> <PUBCHEM_CID>


> <Molecular_formula>
C19H20FNO4

> <Major_Isotope_Mass>
345.13763634

> <ALogP>
2.986699999999999

> <Lipinski_Violations>
0

> <Insecticide_Likeness_Violations>
0

> <Post_Em_Herbicide_Likeness_Violations>
0

> <Metabolite_ID>
BTM00005

> <Reaction>
Hydroxylation of heteroalicyclic secondary carbon

> <Reaction_ID>
BTMR1070

> <Enzyme(s)>
CYP1A2
CYP2A6
CYP2C9
CYP2D6
CYP3A4

> <Biosystem>
HUMAN

> <Precursor_ID>
TEST0094_Paroxetine

> <Precursor_SMILES>
FC1=CC=C(C=C1)[C@@H]2CCNC[C@H]2COC3=CC4=C(OCO4)C=C3

> <Precursor_InChI>
InChI=1S/C19H20FNO3/c20-15-3-1-13(2-4-15)17-7-8-21-10-14(17)11-22-16-5-6-18-19(9-16)24-12-23-18/h1-6,9,14,17,21H,7-8,10-12H2/t14-,17-/m0/s1

> <Precursor_InChIKey>
AHOUBRCZNHFOSL-YOEHRIQHSA-N

> <Precursor_ALogP>
3.229800

> <Precursor_Major_Isotope_Mass>
329.1427

$$$$
BTM00006
  CDK     08072417002D

 25 28  0  0  1  0  0  0  0  0999 V2000
   -1.0077    5.9994    0.0000 F   0  0  0  0  0  0  0  0  0  0  0  0
   -2.3070    5.2498    0.0000 C   0  0  0  0  0  0  0  0  0  0  0  0
   -3.6066    6.0004    0.0000 C   0  0  0  0  0  0  0  0  0  0  0  0
   -4.9070    5.2510    0.0000 C   0  0  0  0  0  0  0  0  0  0  0  0
   -4.9077    3.7510    0.0000 C   0  0  0  0  0  0  0  0  0  0  0  0
   -3.6081    3.0004    0.0000 C   0  0  0  0  0  0  0  0  0  0  0  0
   -2.3077    3.7498    0.0000 C   0  0  0  0  0  0  0  0  0  0  0  0
   -6.2070    3.0015    0.0000 C   0  0  2  0  0  0  0  0  0  0  0  0
   -7.5063    3.7527    0.0000 C   0  0  0  0  0  0  0  0  0  0  0  0
   -8.8056    3.0031    0.0000 C   0  0  0  0  0  0  0  0  0  0  0  0
   -8.8056    1.5023    0.0000 N   0  0  0  0  0  0  0  0  0  0  0  0
   -7.5063    0.7510    0.0000 C   0  0  0  0  0  0  0  0  0  0  0  0
   -6.2070    1.5006    0.0000 C   0  0  1  0  0  0  0  0  0  0  0  0
   -4.9081    0.7504    0.0000 C   0  0  0  0  0  0  0  0  0  0  0  0
   -3.6089    1.5002    0.0000 O   0  0  0  0  0  0  0  0  0  0  0  0
   -2.3100    0.7500    0.0000 C   0  0  0  0  0  0  0  0  0  0  0  0
   -1.0100    1.5000    0.0000 C   0  0  0  0  0  0  0  0  0  0  0  0
    0.2900    0.7500    0.0000 C   0  0  0  0  0  0  0  0  0  0  0  0
    0.2900   -0.7500    0.0000 C   0  0  0  0  0  0  0  0  0  0  0  0
    1.7200   -1.2100    0.0000 O   0  0  0  0  0  0  0  0  0  0  0  0
    2.6000   -0.0000    0.0000 C   0  0  0  0  0  0  0  0  0  0  0  0
    1.7200    1.2100    0.0000 O   0  0  0  0  0  0  0  0  0  0  0  0
   -1.0100   -1.5000    0.0000 C   0  0  0  0  0  0  0  0  0  0  0  0
   -2.3100   -0.7500    0.0000 C   0  0  0  0  0  0  0  0  0  0  0  0
   -7.5056    5.2527    0.0000 O   0  0  0  0  0  0  0  0  0  0  0  0
  1  2  1  0  0  0  0
  2  3  2  0  0  0  0
  3  4  1  0  0  0  0
  4  5  2  0  0  0  0
  5  6  1  0  0  0  0
  6  7  2  0  0  0  0
  2  7  1  0  0  0  0
  8  5  1  1  0  0  0
  8  9  1  0  0  0  0
  9 10  1  0  0  0  0
 10 11  1  0  0  0  0
 11 12  1  0  0  0  0
 12 13  1  0  0  0  0
  8 13  1  0  0  0  0
 13 14  1  6  0  0  0
 14 15  1  0  0  0  0
 15 16  1  0  0  0  0
 16 17  2  0  0  0  0
 17 18  1  0  0  0  0
 18 19  2  0  0  0  0
 19 20  1  0  0  0  0
 20 21  1  0  0  0  0
 21 22  1  0  0  0  0
 18 22  1  0  0  0  0
 19 23  1  0  0  0  0
 23 24  2  0  0  0  0
 16 24  1  0  0  0  0
 25  9  1  0  0  0  0
M  END
> <InChI>
InChI=1S/C19H20FNO4/c20-14-3-1-12(2-4-14)19-13(8-21-9-16(19)22)10-23-15-5-6-17-18(7-15)25-11-24-17/h1-7,13,16,19,21-22H,8-11H2/t13-,16?,19-/m0/s1

> <InChIKey>
FSAWAIUKBVSCIG-BHPDKXSNSA-N

> <SMILES>
FC1=CC=C(C=C1)[C@@H]2C(CNC[C@H]2COC3=CC4=C(OCO4)C=C3)O

> <Synonyms>


> <PUBCHEM_CID>


> <Molecular_formula>
C19H20FNO4

> <Major_Isotope_Mass>
345.13763634000003

> <ALogP>
2.330400000000002

> <Lipinski_Violations>
0

> <Insecticide_Likeness_Violations>
0

> <Post_Em_Herbicide_Likeness_Violations>
0

> <Metabolite_ID>
BTM00006

> <Reaction>
Hydroxylation of heteroalicyclic secondary carbon

> <Reaction_ID>
BTMR1071

> <Enzyme(s)>
CYP1A2

> <Biosystem>
HUMAN

> <Precursor_ID>
TEST0094_Paroxetine

> <Precursor_SMILES>
FC1=CC=C(C=C1)[C@@H]2CCNC[C@H]2COC3=CC4=C(OCO4)C=C3

> <Precursor_InChI>
InChI=1S/C19H20FNO3/c20-15-3-1-13(2-4-15)17-7-8-21-10-14(17)11-22-16-5-6-18-19(9-16)24-12-23-18/h1-6,9,14,17,21H,7-8,10-12H2/t14-,17-/m0/s1

> <Precursor_InChIKey>
AHOUBRCZNHFOSL-YOEHRIQHSA-N

> <Precursor_ALogP>
3.229800

> <Precursor_Major_Isotope_Mass>
329.1427

$$$$
BTM00007
  CDK     08072417002D

 25 28  0  0  1  0  0  0  0  0999 V2000
   -7.5077   -5.2506    0.0000 F   0  0  0  0  0  0  0  0  0  0  0  0
   -7.5070   -3.7506    0.0000 C   0  0  0  0  0  0  0  0  0  0  0  0
   -8.8063   -2.9994    0.0000 C   0  0  0  0  0  0  0  0  0  0  0  0
   -8.8063   -1.4985    0.0000 C   0  0  0  0  0  0  0  0  0  0  0  0
   -7.5070   -0.7490    0.0000 C   0  0  0  0  0  0  0  0  0  0  0  0
   -6.2077   -1.5002    0.0000 C   0  0  0  0  0  0  0  0  0  0  0  0
   -6.2077   -3.0010    0.0000 C   0  0  0  0  0  0  0  0  0  0  0  0
   -7.5063    0.7510    0.0000 C   0  0  2  0  0  0  0  0  0  0  0  0
   -8.8056    1.5023    0.0000 C   0  0  0  0  0  0  0  0  0  0  0  0
   -8.8056    3.0031    0.0000 C   0  0  0  0  0  0  0  0  0  0  0  0
   -7.5063    3.7527    0.0000 N   0  0  0  0  0  0  0  0  0  0  0  0
   -6.2070    3.0015    0.0000 C   0  0  0  0  0  0  0  0  0  0  0  0
   -6.2070    1.5006    0.0000 C   0  0  1  0  0  0  0  0  0  0  0  0
   -4.9081    0.7504    0.0000 C   0  0  0  0  0  0  0  0  0  0  0  0
   -3.6089    1.5002    0.0000 O   0  0  0  0  0  0  0  0  0  0  0  0
   -2.3100    0.7500    0.0000 C   0  0  0  0  0  0  0  0  0  0  0  0
   -1.0100    1.5000    0.0000 C   0  0  0  0  0  0  0  0  0  0  0  0
    0.2900    0.7500    0.0000 C   0  0  0  0  0  0  0  0  0  0  0  0
    0.2900   -0.7500    0.0000 C   0  0  0  0  0  0  0  0  0  0  0  0
    1.7200   -1.2100    0.0000 O   0  0  0  0  0  0  0  0  0  0  0  0
    2.6000   -0.0000    0.0000 C   0  0  0  0  0  0  0  0  0  0  0  0
    1.7200    1.2100    0.0000 O   0  0  0  0  0  0  0  0  0  0  0  0
   -1.0100   -1.5000    0.0000 C   0  0  0  0  0  0  0  0  0  0  0  0
   -2.3100   -0.7500    0.0000 C   0  0  0  0  0  0  0  0  0  0  0  0
  -10.1055   -3.7490    0.0000 O   0  0  0  0  0  0  0  0  0  0  0  0
  1  2  1  0  0  0  0
  2  3  2  0  0  0  0
  3  4  1  0  0  0  0
  4  5  2  0  0  0  0
  5  6  1  0  0  0  0
  6  7  2  0  0  0  0
  2  7  1  0  0  0  0
  8  5  1  6  0  0  0
  8  9  1  0  0  0  0
  9 10  1  0  0  0  0
 10 11  1  0  0  0  0
 11 12  1  0  0  0  0
 12 13  1  0  0  0  0
  8 13  1  0  0  0  0
 13 14  1  1  0  0  0
 14 15  1  0  0  0  0
 15 16  1  0  0  0  0
 16 17  2  0  0  0  0
 17 18  1  0  0  0  0
 18 19  2  0  0  0  0
 19 20  1  0  0  0  0
 20 21  1  0  0  0  0
 21 22  1  0  0  0  0
 18 22  1  0  0  0  0
 19 23  1  0  0  0  0
 23 24  2  0  0  0  0
 16 24  1  0  0  0  0
 25  3  1  0  0  0  0
M  END
> <InChI>
InChI=1S/C19H20FNO4/c20-16-3-1-12(7-17(16)22)15-5-6-21-9-13(15)10-23-14-2-4-18-19(8-14)25-11-24-18/h1-4,7-8,13,15,21-22H,5-6,9-11H2/t13-,15-/m0/s1

> <InChIKey>
NXEZAXQSLNNGIZ-ZFWWWQNUSA-N

> <SMILES>
FC1=C(C=C(C=C1)[C@@H]2CCNC[C@H]2COC3=CC4=C(OCO4)C=C3)O

> <Synonyms>


> <PUBCHEM_CID>


> <Molecular_formula>
C19H20FNO4

> <Major_Isotope_Mass>
345.13763634000003

> <ALogP>
2.962399999999999

> <Lipinski_Violations>
0

> <Insecticide_Likeness_Violations>
0

> <Post_Em_Herbicide_Likeness_Violations>
0

> <Metabolite_ID>
BTM00007

> <Reaction>
Hydroxylation of aromatic carbon ortho to halide group

> <Reaction_ID>
BTMR1040

> <Enzyme(s)>
CYP1A2
CYP2A6
CYP2B6
CYP2C8
CYP2C9
CYP2C19
CYP2D6
CYP2E1
CYP3A4

> <Biosystem>
HUMAN

> <Precursor_ID>
TEST0094_Paroxetine

> <Precursor_SMILES>
FC1=CC=C(C=C1)[C@@H]2CCNC[C@H]2COC3=CC4=C(OCO4)C=C3

> <Precursor_InChI>
InChI=1S/C19H20FNO3/c20-15-3-1-13(2-4-15)17-7-8-21-10-14(17)11-22-16-5-6-18-19(9-16)24-12-23-18/h1-6,9,14,17,21H,7-8,10-12H2/t14-,17-/m0/s1

> <Precursor_InChIKey>
AHOUBRCZNHFOSL-YOEHRIQHSA-N

> <Precursor_ALogP>
3.229800

> <Precursor_Major_Isotope_Mass>
329.1427

$$$$
BTM00008
  CDK     08072417002D

 23 25  0  0  1  0  0  0  0  0999 V2000
    5.8464   -3.7529    0.0000 F   0  0  0  0  0  0  0  0  0  0  0  0
    4.5475   -3.0027    0.0000 C   0  0  0  0  0  0  0  0  0  0  0  0
    4.5475   -1.5019    0.0000 C   0  0  0  0  0  0  0  0  0  0  0  0
    3.2482   -0.7506    0.0000 C   0  0  0  0  0  0  0  0  0  0  0  0
    1.9489   -1.5002    0.0000 C   0  0  0  0  0  0  0  0  0  0  0  0
    1.9489   -3.0010    0.0000 C   0  0  0  0  0  0  0  0  0  0  0  0
    3.2482   -3.7523    0.0000 C   0  0  0  0  0  0  0  0  0  0  0  0
    0.6500   -0.7500    0.0000 C   0  0  2  0  0  0  0  0  0  0  0  0
   -0.6500   -1.5000    0.0000 C   0  0  0  0  0  0  0  0  0  0  0  0
   -1.9500   -0.7500    0.0000 C   0  0  0  0  0  0  0  0  0  0  0  0
   -1.9500    0.7500    0.0000 N   0  0  0  0  0  0  0  0  0  0  0  0
   -0.6500    1.5000    0.0000 C   0  0  0  0  0  0  0  0  0  0  0  0
    0.6500    0.7500    0.0000 C   0  0  1  0  0  0  0  0  0  0  0  0
    1.9489    1.5002    0.0000 C   0  0  0  0  0  0  0  0  0  0  0  0
    1.9487    3.0002    0.0000 O   0  0  0  0  0  0  0  0  0  0  0  0
    3.2476    3.7504    0.0000 C   0  0  0  0  0  0  0  0  0  0  0  0
    4.5220    2.9456    0.0000 C   0  0  0  0  0  0  0  0  0  0  0  0
    5.8248    3.6893    0.0000 C   0  0  0  0  0  0  0  0  0  0  0  0
    5.8031    5.1850    0.0000 C   0  0  0  0  0  0  0  0  0  0  0  0
    7.0960    5.9454    0.0000 O   0  0  0  0  0  0  0  0  0  0  0  0
    7.1274    2.9456    0.0000 O   0  0  0  0  0  0  0  0  0  0  0  0
    4.4871    5.9421    0.0000 C   0  0  0  0  0  0  0  0  0  0  0  0
    3.1909    5.1675    0.0000 C   0  0  0  0  0  0  0  0  0  0  0  0
  1  2  1  0  0  0  0
  2  3  2  0  0  0  0
  3  4  1  0  0  0  0
  4  5  2  0  0  0  0
  5  6  1  0  0  0  0
  6  7  2  0  0  0  0
  2  7  1  0  0  0  0
  8  5  1  6  0  0  0
  8  9  1  0  0  0  0
  9 10  1  0  0  0  0
 10 11  1  0  0  0  0
 11 12  1  0  0  0  0
 12 13  1  0  0  0  0
  8 13  1  0  0  0  0
 13 14  1  1  0  0  0
 14 15  1  0  0  0  0
 15 16  1  0  0  0  0
 16 17  2  0  0  0  0
 17 18  1  0  0  0  0
 18 19  2  0  0  0  0
 19 20  1  0  0  0  0
 18 21  1  0  0  0  0
 19 22  1  0  0  0  0
 22 23  2  0  0  0  0
 16 23  1  0  0  0  0
M  END
> <InChI>
InChI=1S/C18H20FNO3/c19-14-3-1-12(2-4-14)16-7-8-20-10-13(16)11-23-15-5-6-17(21)18(22)9-15/h1-6,9,13,16,20-22H,7-8,10-11H2/t13-,16-/m0/s1

> <InChIKey>
VJMXXTJAPJRAQL-BBRMVZONSA-N

> <SMILES>
FC1=CC=C(C=C1)[C@@H]2CCNC[C@H]2COC3=CC(=C(O)C=C3)O

> <Synonyms>


> <PUBCHEM_CID>


> <Molecular_formula>
C18H20FNO3

> <Major_Isotope_Mass>
317.14272172

> <ALogP>
2.9269

> <Lipinski_Violations>
0

> <Insecticide_Likeness_Violations>
1

> <Post_Em_Herbicide_Likeness_Violations>
1

> <Metabolite_ID>
BTM00008

> <Reaction>
Methylenedioxy ring opening AndFromCyProduct

> <Reaction_ID>
N/A

> <Enzyme(s)>
CYP1A2
CYP2D6

> <Biosystem>
HUMAN

> <Precursor_ID>
TEST0094_Paroxetine

> <Precursor_SMILES>
FC1=CC=C(C=C1)[C@@H]2CCNC[C@H]2COC3=CC4=C(OCO4)C=C3

> <Precursor_InChI>
InChI=1S/C19H20FNO3/c20-15-3-1-13(2-4-15)17-7-8-21-10-14(17)11-22-16-5-6-18-19(9-16)24-12-23-18/h1-6,9,14,17,21H,7-8,10-12H2/t14-,17-/m0/s1

> <Precursor_InChIKey>
AHOUBRCZNHFOSL-YOEHRIQHSA-N

> <Precursor_ALogP>
3.229800

> <Precursor_Major_Isotope_Mass>
329.1427

$$$$
BTM00009
  CDK     08072417002D

 25 28  0  0  1  0  0  0  0  0999 V2000
   -7.5077   -5.2506    0.0000 F   0  0  0  0  0  0  0  0  0  0  0  0
   -7.5070   -3.7506    0.0000 C   0  0  0  0  0  0  0  0  0  0  0  0
   -8.8063   -2.9994    0.0000 C   0  0  0  0  0  0  0  0  0  0  0  0
   -8.8063   -1.4985    0.0000 C   0  0  0  0  0  0  0  0  0  0  0  0
   -7.5070   -0.7490    0.0000 C   0  0  0  0  0  0  0  0  0  0  0  0
   -6.2077   -1.5002    0.0000 C   0  0  0  0  0  0  0  0  0  0  0  0
   -6.2077   -3.0010    0.0000 C   0  0  0  0  0  0  0  0  0  0  0  0
   -7.5063    0.7510    0.0000 C   0  0  2  0  0  0  0  0  0  0  0  0
   -8.8056    1.5023    0.0000 C   0  0  0  0  0  0  0  0  0  0  0  0
   -8.8056    3.0031    0.0000 C   0  0  0  0  0  0  0  0  0  0  0  0
   -7.5063    3.7527    0.0000 N   0  0  0  0  0  0  0  0  0  0  0  0
   -6.2070    3.0015    0.0000 C   0  0  0  0  0  0  0  0  0  0  0  0
   -6.2070    1.5006    0.0000 C   0  0  1  0  0  0  0  0  0  0  0  0
   -4.9081    0.7504    0.0000 C   0  0  0  0  0  0  0  0  0  0  0  0
   -3.6089    1.5002    0.0000 O   0  0  0  0  0  0  0  0  0  0  0  0
   -2.3100    0.7500    0.0000 C   0  0  0  0  0  0  0  0  0  0  0  0
   -1.0100    1.5000    0.0000 C   0  0  0  0  0  0  0  0  0  0  0  0
    0.2900    0.7500    0.0000 C   0  0  0  0  0  0  0  0  0  0  0  0
    0.2900   -0.7500    0.0000 C   0  0  0  0  0  0  0  0  0  0  0  0
    1.7200   -1.2100    0.0000 O   0  0  0  0  0  0  0  0  0  0  0  0
    2.6000   -0.0000    0.0000 C   0  0  0  0  0  0  0  0  0  0  0  0
    1.7200    1.2100    0.0000 O   0  0  0  0  0  0  0  0  0  0  0  0
   -1.0100   -1.5000    0.0000 C   0  0  0  0  0  0  0  0  0  0  0  0
   -2.3100   -0.7500    0.0000 C   0  0  0  0  0  0  0  0  0  0  0  0
  -10.1052   -0.7483    0.0000 O   0  0  0  0  0  0  0  0  0  0  0  0
  1  2  1  0  0  0  0
  2  3  2  0  0  0  0
  3  4  1  0  0  0  0
  4  5  2  0  0  0  0
  5  6  1  0  0  0  0
  6  7  2  0  0  0  0
  2  7  1  0  0  0  0
  8  5  1  6  0  0  0
  8  9  1  0  0  0  0
  9 10  1  0  0  0  0
 10 11  1  0  0  0  0
 11 12  1  0  0  0  0
 12 13  1  0  0  0  0
  8 13  1  0  0  0  0
 13 14  1  1  0  0  0
 14 15  1  0  0  0  0
 15 16  1  0  0  0  0
 16 17  2  0  0  0  0
 17 18  1  0  0  0  0
 18 19  2  0  0  0  0
 19 20  1  0  0  0  0
 20 21  1  0  0  0  0
 21 22  1  0  0  0  0
 18 22  1  0  0  0  0
 19 23  1  0  0  0  0
 23 24  2  0  0  0  0
 16 24  1  0  0  0  0
 25  4  1  0  0  0  0
M  END
> <InChI>
InChI=1S/C19H20FNO4/c20-13-1-3-16(17(22)7-13)15-5-6-21-9-12(15)10-23-14-2-4-18-19(8-14)25-11-24-18/h1-4,7-8,12,15,21-22H,5-6,9-11H2/t12-,15+/m0/s1

> <InChIKey>
ZUSLEEXTZCTDLG-SWLSCSKDSA-N

> <SMILES>
FC1=CC(=C(C=C1)[C@@H]2CCNC[C@H]2COC3=CC4=C(OCO4)C=C3)O

> <Synonyms>


> <PUBCHEM_CID>


> <Molecular_formula>
C19H20FNO4

> <Major_Isotope_Mass>
345.13763634

> <ALogP>
2.962399999999999

> <Lipinski_Violations>
0

> <Insecticide_Likeness_Violations>
0

> <Post_Em_Herbicide_Likeness_Violations>
0

> <Metabolite_ID>
BTM00009

> <Reaction>
Hydroxylation of aromatic carbon meta to halide group

> <Reaction_ID>
BTMR1039

> <Enzyme(s)>
CYP2A6
CYP2B6
CYP2C9
CYP2C19
CYP2E1
CYP3A4

> <Biosystem>
HUMAN

> <Precursor_ID>
TEST0094_Paroxetine

> <Precursor_SMILES>
FC1=CC=C(C=C1)[C@@H]2CCNC[C@H]2COC3=CC4=C(OCO4)C=C3

> <Precursor_InChI>
InChI=1S/C19H20FNO3/c20-15-3-1-13(2-4-15)17-7-8-21-10-14(17)11-22-16-5-6-18-19(9-16)24-12-23-18/h1-6,9,14,17,21H,7-8,10-12H2/t14-,17-/m0/s1

> <Precursor_InChIKey>
AHOUBRCZNHFOSL-YOEHRIQHSA-N

> <Precursor_ALogP>
3.229800

> <Precursor_Major_Isotope_Mass>
329.1427

$$$$
BTM00010
  CDK     08072417002D

 25 28  0  0  0  0  0  0  0  0999 V2000
   -7.5077   -5.2506    0.0000 F   0  0  0  0  0  0  0  0  0  0  0  0
   -7.5070   -3.7506    0.0000 C   0  0  0  0  0  0  0  0  0  0  0  0
   -8.8063   -2.9994    0.0000 C   0  0  0  0  0  0  0  0  0  0  0  0
   -8.8063   -1.4985    0.0000 C   0  0  0  0  0  0  0  0  0  0  0  0
   -7.5070   -0.7490    0.0000 C   0  0  0  0  0  0  0  0  0  0  0  0
   -6.2077   -1.5002    0.0000 C   0  0  0  0  0  0  0  0  0  0  0  0
   -6.2077   -3.0010    0.0000 C   0  0  0  0  0  0  0  0  0  0  0  0
   -4.9088   -3.7512    0.0000 O   0  0  0  0  0  0  0  0  0  0  0  0
   -7.5063    0.7510    0.0000 C   0  0  0  0  0  0  0  0  0  0  0  0
   -8.8056    1.5023    0.0000 C   0  0  0  0  0  0  0  0  0  0  0  0
   -8.8056    3.0031    0.0000 C   0  0  0  0  0  0  0  0  0  0  0  0
   -7.5063    3.7527    0.0000 N   0  0  0  0  0  0  0  0  0  0  0  0
   -6.2070    3.0015    0.0000 C   0  0  0  0  0  0  0  0  0  0  0  0
   -6.2070    1.5006    0.0000 C   0  0  0  0  0  0  0  0  0  0  0  0
   -4.9081    0.7504    0.0000 C   0  0  0  0  0  0  0  0  0  0  0  0
   -3.6089    1.5002    0.0000 O   0  0  0  0  0  0  0  0  0  0  0  0
   -2.3100    0.7500    0.0000 C   0  0  0  0  0  0  0  0  0  0  0  0
   -1.0100    1.5000    0.0000 C   0  0  0  0  0  0  0  0  0  0  0  0
    0.2900    0.7500    0.0000 C   0  0  0  0  0  0  0  0  0  0  0  0
    0.2900   -0.7500    0.0000 C   0  0  0  0  0  0  0  0  0  0  0  0
    1.7200   -1.2100    0.0000 O   0  0  0  0  0  0  0  0  0  0  0  0
    2.6000   -0.0000    0.0000 C   0  0  0  0  0  0  0  0  0  0  0  0
    1.7200    1.2100    0.0000 O   0  0  0  0  0  0  0  0  0  0  0  0
   -1.0100   -1.5000    0.0000 C   0  0  0  0  0  0  0  0  0  0  0  0
   -2.3100   -0.7500    0.0000 C   0  0  0  0  0  0  0  0  0  0  0  0
  1  2  1  0  0  0  0
  2  3  1  0  0  0  0
  3  4  2  0  0  0  0
  4  5  1  0  0  0  0
  5  6  2  0  0  0  0
  6  7  1  0  0  0  0
  2  7  2  0  0  0  0
  7  8  1  0  0  0  0
  5  9  1  0  0  0  0
  9 10  1  0  0  0  0
 10 11  1  0  0  0  0
 11 12  1  0  0  0  0
 12 13  1  0  0  0  0
 13 14  1  0  0  0  0
  9 14  1  0  0  0  0
 14 15  1  0  0  0  0
 15 16  1  0  0  0  0
 16 17  1  0  0  0  0
 17 18  2  0  0  0  0
 18 19  1  0  0  0  0
 19 20  2  0  0  0  0
 20 21  1  0  0  0  0
 21 22  1  0  0  0  0
 22 23  1  0  0  0  0
 19 23  1  0  0  0  0
 20 24  1  0  0  0  0
 24 25  2  0  0  0  0
 17 25  1  0  0  0  0
M  END
> <InChI>
InChI=1S/C19H20FNO4/c20-16-3-1-12(7-17(16)22)15-5-6-21-9-13(15)10-23-14-2-4-18-19(8-14)25-11-24-18/h1-4,7-8,13,15,21-22H,5-6,9-11H2

> <InChIKey>
NXEZAXQSLNNGIZ-UHFFFAOYSA-N

> <SMILES>
FC=1C=CC(=CC1O)C2CCNCC2COC3=CC4=C(OCO4)C=C3

> <Synonyms>


> <PUBCHEM_CID>


> <Molecular_formula>
C19H20FNO4

> <Major_Isotope_Mass>
345.13763634

> <ALogP>
2.962399999999999

> <Lipinski_Violations>
0

> <Insecticide_Likeness_Violations>
0

> <Post_Em_Herbicide_Likeness_Violations>
0

> <Metabolite_ID>
BTM00010

> <Reaction>
Hydroxylation from CyProduct

> <Reaction_ID>
BTMR1328

> <Enzyme(s)>
CYP3A4

> <Biosystem>
HUMAN

> <Precursor_ID>
TEST0094_Paroxetine

> <Precursor_SMILES>
FC1=CC=C(C=C1)[C@@H]2CCNC[C@H]2COC3=CC4=C(OCO4)C=C3

> <Precursor_InChI>
InChI=1S/C19H20FNO3/c20-15-3-1-13(2-4-15)17-7-8-21-10-14(17)11-22-16-5-6-18-19(9-16)24-12-23-18/h1-6,9,14,17,21H,7-8,10-12H2/t14-,17-/m0/s1

> <Precursor_InChIKey>
AHOUBRCZNHFOSL-YOEHRIQHSA-N

> <Precursor_ALogP>
3.229800

> <Precursor_Major_Isotope_Mass>
329.1427

$$$$
