BTM00001
  CDK     08072416552D

 17 18  0  0  1  0  0  0  0  0999 V2000
    0.0000    2.4931    0.0000 O   0  0  0  0  0  0  0  0  0  0  0  0
   -1.2100    1.6031    0.0000 C   0  0  1  0  0  0  0  0  0  0  0  0
   -0.7500    0.1831    0.0000 C   0  0  1  0  0  0  0  0  0  0  0  0
   -1.6322   -1.0300    0.0000 O   0  0  0  0  0  0  0  0  0  0  0  0
    0.7500    0.1831    0.0000 C   0  0  1  0  0  0  0  0  0  0  0  0
    1.6322   -1.0300    0.0000 O   0  0  0  0  0  0  0  0  0  0  0  0
    1.2100    1.6031    0.0000 C   0  0  2  0  0  0  0  0  0  0  0  0
    2.6377    2.0631    0.0000 N   0  0  0  0  0  0  0  0  0  0  0  0
    3.8477    1.1731    0.0000 N   0  0  0  0  0  0  0  0  0  0  0  0
    5.0577    2.0631    0.0000 C   0  0  0  0  0  0  0  0  0  0  0  0
    4.5977    3.4831    0.0000 N   0  0  0  0  0  0  0  0  0  0  0  0
    3.0977    3.4831    0.0000 C   0  0  0  0  0  0  0  0  0  0  0  0
    6.4855    1.6031    0.0000 C   0  0  0  0  0  0  0  0  0  0  0  0
    6.8010    0.1367    0.0000 O   0  0  0  0  0  0  0  0  0  0  0  0
    7.5977    2.6096    0.0000 N   0  0  0  0  0  0  0  0  0  0  0  0
   -2.6377    2.0631    0.0000 C   0  0  0  0  0  0  0  0  0  0  0  0
   -3.7499    1.0566    0.0000 O   0  0  0  0  0  0  0  0  0  0  0  0
  1  2  1  0  0  0  0
  2  3  1  0  0  0  0
  3  4  1  6  0  0  0
  3  5  1  0  0  0  0
  5  6  1  6  0  0  0
  5  7  1  0  0  0  0
  1  7  1  0  0  0  0
  7  8  1  1  0  0  0
  8  9  1  0  0  0  0
  9 10  2  0  0  0  0
 10 11  1  0  0  0  0
 11 12  2  0  0  0  0
  8 12  1  0  0  0  0
 10 13  1  0  0  0  0
 13 14  2  0  0  0  0
 13 15  1  0  0  0  0
  2 16  1  1  0  0  0
 16 17  2  0  0  0  0
M  END
> <InChI>
InChI=1S/C8H10N4O5/c9-6(16)7-10-2-12(11-7)8-5(15)4(14)3(1-13)17-8/h1-5,8,14-15H,(H2,9,16)/t3-,4-,5-,8-/m1/s1

> <InChIKey>
LKZYZKPSDLRMQW-AFCXAGJDSA-N

> <SMILES>
O1[C@@H]([C@@H](O)[C@@H](O)[C@@H]1N2N=C(N=C2)C(=O)N)C=O

> <Synonyms>


> <PUBCHEM_CID>


> <Molecular_formula>
C8H10N4O5

> <Major_Isotope_Mass>
242.06511941999997

> <ALogP>
-2.4887000000000006

> <Lipinski_Violations>
0

> <Insecticide_Likeness_Violations>
1

> <Post_Em_Herbicide_Likeness_Violations>
1

> <Metabolite_ID>
BTM00001

> <Reaction>
Oxidation of primary alcohol to aldehyde

> <Reaction_ID>
BTMR0105

> <Enzyme(s)>
CYP1A2
CYP2E1
CYP3A4

> <Biosystem>
HUMAN

> <Precursor_ID>
TEST0057_Ribavirin

> <Precursor_SMILES>
O1[C@@H]([C@@H](O)[C@@H](O)[C@@H]1N2N=C(N=C2)C(=O)N)CO

> <Precursor_InChI>
InChI=1S/C8H12N4O5/c9-6(16)7-10-2-12(11-7)8-5(15)4(14)3(1-13)17-8/h2-5,8,13-15H,1H2,(H2,9,16)/t3-,4-,5-,8-/m1/s1

> <Precursor_InChIKey>
IWUCXVSUMQZMFG-AFCXAGJDSA-N

> <Precursor_ALogP>
-2.745

> <Precursor_Major_Isotope_Mass>
244.0807

$$$$
