BTM00001
  CDK     08072416492D

 18 19  0  0  0  0  0  0  0  0999 V2000
    0.1885   -2.6088    0.0000 S   0  0  0  0  0  0  0  0  0  0  0  0
    0.3367   -1.1141    0.0000 C   0  0  0  0  0  0  0  0  0  0  0  0
   -1.0264   -0.5058    0.0000 N   0  0  0  0  0  0  0  0  0  0  0  0
   -2.0301   -1.6205    0.0000 C   0  0  0  0  0  0  0  0  0  0  0  0
   -1.2826   -2.9125    0.0000 C   0  0  0  0  0  0  0  0  0  0  0  0
   -1.8961   -4.2813    0.0000 C   0  0  0  0  0  0  0  0  0  0  0  0
   -1.0175   -5.4970    0.0000 O   0  0  0  0  0  0  0  0  0  0  0  0
   -3.3883   -4.4344    0.0000 O   0  0  0  0  0  0  0  0  0  0  0  0
   -3.5219   -1.4643    0.0000 C   0  0  0  0  0  0  0  0  0  0  0  0
    1.6339   -0.3609    0.0000 C   0  0  0  0  0  0  0  0  0  0  0  0
    2.9349   -1.1074    0.0000 C   0  0  0  0  0  0  0  0  0  0  0  0
    4.2324   -0.3531    0.0000 C   0  0  0  0  0  0  0  0  0  0  0  0
    4.2289    1.1477    0.0000 C   0  0  0  0  0  0  0  0  0  0  0  0
    5.5261    1.9009    0.0000 O   0  0  0  0  0  0  0  0  0  0  0  0
    2.9279    1.8943    0.0000 C   0  0  0  0  0  0  0  0  0  0  0  0
    1.6304    1.1400    0.0000 C   0  0  0  0  0  0  0  0  0  0  0  0
    5.5334   -1.0997    0.0000 C   0  0  0  0  0  0  0  0  0  0  0  0
    6.8345   -1.8462    0.0000 N   0  0  0  0  0  0  0  0  0  0  0  0
  1  2  1  0  0  0  0
  2  3  2  0  0  0  0
  3  4  1  0  0  0  0
  4  5  2  0  0  0  0
  1  5  1  0  0  0  0
  5  6  1  0  0  0  0
  6  7  1  0  0  0  0
  6  8  2  0  0  0  0
  4  9  1  0  0  0  0
  2 10  1  0  0  0  0
 10 11  2  0  0  0  0
 11 12  1  0  0  0  0
 12 13  2  0  0  0  0
 13 14  1  0  0  0  0
 13 15  1  0  0  0  0
 15 16  2  0  0  0  0
 10 16  1  0  0  0  0
 12 17  1  0  0  0  0
 17 18  3  0  0  0  0
M  END
> <InChI>
InChI=1S/C12H8N2O3S/c1-6-10(12(16)17)18-11(14-6)7-2-3-9(15)8(4-7)5-13/h2-4,15H,1H3,(H,16,17)

> <InChIKey>
ZJDGVDDELZNDRA-UHFFFAOYSA-N

> <SMILES>
S1C(=NC(=C1C(O)=O)C)C2=CC(=C(O)C=C2)C#N

> <Synonyms>


> <PUBCHEM_CID>


> <Molecular_formula>
C12H8N2O3S

> <Major_Isotope_Mass>
260.02556311599994

> <ALogP>
2.0004999999999997

> <Lipinski_Violations>
0

> <Insecticide_Likeness_Violations>
0

> <Post_Em_Herbicide_Likeness_Violations>
0

> <Metabolite_ID>
BTM00001

> <Reaction>
O-Dealkylation AndFromCyProduct

> <Reaction_ID>
N/A

> <Enzyme(s)>
CYP1A2
CYP2A6
CYP2C9
CYP2C19
CYP2D6
CYP2E1
CYP3A4

> <Biosystem>
HUMAN

> <Precursor_ID>
TEST0020_Febuxostat

> <Precursor_SMILES>
S1C(=NC(=C1C(O)=O)C)C2=CC(=C(OCC(C)C)C=C2)C#N

> <Precursor_InChI>
InChI=1S/C16H16N2O3S/c1-9(2)8-21-13-5-4-11(6-12(13)7-17)15-18-10(3)14(22-15)16(19)20/h4-6,9H,8H2,1-3H3,(H,19,20)

> <Precursor_InChIKey>
BQSJTQLCZDPROO-UHFFFAOYSA-N

> <Precursor_ALogP>
3.443300

> <Precursor_Major_Isotope_Mass>
316.0881

$$$$
BTM00002
  CDK     08072416492D

  5  4  0  0  0  0  0  0  0  0999 V2000
    1.2990    2.2500    0.0000 C   0  0  0  0  0  0  0  0  0  0  0  0
    0.0000    1.5000    0.0000 C   0  0  0  0  0  0  0  0  0  0  0  0
   -0.0000    0.0000    0.0000 C   0  0  0  0  0  0  0  0  0  0  0  0
   -1.2990    2.2500    0.0000 C   0  0  0  0  0  0  0  0  0  0  0  0
    1.2990    3.7500    0.0000 O   0  0  0  0  0  0  0  0  0  0  0  0
  1  2  1  0  0  0  0
  2  3  1  0  0  0  0
  2  4  1  0  0  0  0
  1  5  2  0  0  0  0
M  END
> <InChI>
InChI=1S/C4H8O/c1-4(2)3-5/h3-4H,1-2H3

> <InChIKey>
AMIMRNSIRUDHCM-UHFFFAOYSA-N

> <SMILES>
C(C(C)C)=O

> <Synonyms>


> <PUBCHEM_CID>


> <Molecular_formula>
C4H8O

> <Major_Isotope_Mass>
72.057514876

> <ALogP>
0.9469000000000002

> <Lipinski_Violations>
0

> <Insecticide_Likeness_Violations>
0

> <Post_Em_Herbicide_Likeness_Violations>
0

> <Metabolite_ID>
BTM00002

> <Reaction>
O-Dealkylation AndFromCyProduct

> <Reaction_ID>
N/A

> <Enzyme(s)>
CYP1A2
CYP2A6
CYP2C9
CYP2C19
CYP2D6
CYP2E1
CYP3A4

> <Biosystem>
HUMAN

> <Precursor_ID>
TEST0020_Febuxostat

> <Precursor_SMILES>
S1C(=NC(=C1C(O)=O)C)C2=CC(=C(OCC(C)C)C=C2)C#N

> <Precursor_InChI>
InChI=1S/C16H16N2O3S/c1-9(2)8-21-13-5-4-11(6-12(13)7-17)15-18-10(3)14(22-15)16(19)20/h4-6,9H,8H2,1-3H3,(H,19,20)

> <Precursor_InChIKey>
BQSJTQLCZDPROO-UHFFFAOYSA-N

> <Precursor_ALogP>
3.443300

> <Precursor_Major_Isotope_Mass>
316.0881

$$$$
BTM00003
  CDK     08072416492D

 23 24  0  0  0  0  0  0  0  0999 V2000
    0.7926   -3.9659    0.0000 S   0  0  0  0  0  0  0  0  0  0  0  0
    0.9409   -2.4711    0.0000 C   0  0  0  0  0  0  0  0  0  0  0  0
   -0.4222   -1.8628    0.0000 N   0  0  0  0  0  0  0  0  0  0  0  0
   -1.4259   -2.9775    0.0000 C   0  0  0  0  0  0  0  0  0  0  0  0
   -0.6784   -4.2695    0.0000 C   0  0  0  0  0  0  0  0  0  0  0  0
   -1.2919   -5.6383    0.0000 C   0  0  0  0  0  0  0  0  0  0  0  0
   -0.4133   -6.8540    0.0000 O   0  0  0  0  0  0  0  0  0  0  0  0
   -2.7841   -5.7914    0.0000 O   0  0  0  0  0  0  0  0  0  0  0  0
   -2.9177   -2.8214    0.0000 C   0  0  0  0  0  0  0  0  0  0  0  0
    2.2381   -1.7179    0.0000 C   0  0  0  0  0  0  0  0  0  0  0  0
    3.5391   -2.4645    0.0000 C   0  0  0  0  0  0  0  0  0  0  0  0
    4.8366   -1.7102    0.0000 C   0  0  0  0  0  0  0  0  0  0  0  0
    4.8331   -0.2093    0.0000 C   0  0  0  0  0  0  0  0  0  0  0  0
    6.1303    0.5439    0.0000 O   0  0  0  0  0  0  0  0  0  0  0  0
    6.1265    2.0439    0.0000 C   0  0  0  0  0  0  0  0  0  0  0  0
    7.4237    2.7971    0.0000 C   0  0  0  0  0  0  0  0  0  0  0  0
    7.4200    4.2971    0.0000 C   0  0  0  0  0  0  0  0  0  0  0  0
    8.7246    2.0503    0.0000 C   0  0  0  0  0  0  0  0  0  0  0  0
    3.5321    0.5372    0.0000 C   0  0  0  0  0  0  0  0  0  0  0  0
    2.2346   -0.2171    0.0000 C   0  0  0  0  0  0  0  0  0  0  0  0
    6.1376   -2.4567    0.0000 C   0  0  0  0  0  0  0  0  0  0  0  0
    7.4386   -3.2033    0.0000 N   0  0  0  0  0  0  0  0  0  0  0  0
   -3.7989   -4.0353    0.0000 O   0  0  0  0  0  0  0  0  0  0  0  0
  1  2  1  0  0  0  0
  2  3  2  0  0  0  0
  3  4  1  0  0  0  0
  4  5  2  0  0  0  0
  1  5  1  0  0  0  0
  5  6  1  0  0  0  0
  6  7  1  0  0  0  0
  6  8  2  0  0  0  0
  4  9  1  0  0  0  0
  2 10  1  0  0  0  0
 10 11  2  0  0  0  0
 11 12  1  0  0  0  0
 12 13  2  0  0  0  0
 13 14  1  0  0  0  0
 14 15  1  0  0  0  0
 15 16  1  0  0  0  0
 16 17  1  0  0  0  0
 16 18  1  0  0  0  0
 13 19  1  0  0  0  0
 19 20  2  0  0  0  0
 10 20  1  0  0  0  0
 12 21  1  0  0  0  0
 21 22  3  0  0  0  0
 23  9  1  0  0  0  0
M  END
> <InChI>
InChI=1S/C16H16N2O4S/c1-9(2)8-22-13-4-3-10(5-11(13)6-17)15-18-12(7-19)14(23-15)16(20)21/h3-5,9,19H,7-8H2,1-2H3,(H,20,21)

> <InChIKey>
WRQZRXBEFRZSEQ-UHFFFAOYSA-N

> <SMILES>
S1C(=NC(=C1C(O)=O)CO)C2=CC(=C(OCC(C)C)C=C2)C#N

> <Synonyms>


> <PUBCHEM_CID>


> <Molecular_formula>
C16H16N2O4S

> <Major_Isotope_Mass>
332.08307799199997

> <ALogP>
2.984700000000002

> <Lipinski_Violations>
0

> <Insecticide_Likeness_Violations>
0

> <Post_Em_Herbicide_Likeness_Violations>
0

> <Metabolite_ID>
BTM00003

> <Reaction>
Aliphatic hydroxylation of methyl carbon adjacent to aromatic ring AndFromCyProduct

> <Reaction_ID>
N/A

> <Enzyme(s)>
CYP1A2
CYP2A6
CYP2B6
CYP2C8
CYP2C9
CYP2C19
CYP2D6
CYP2E1
CYP3A4

> <Biosystem>
HUMAN

> <Precursor_ID>
TEST0020_Febuxostat

> <Precursor_SMILES>
S1C(=NC(=C1C(O)=O)C)C2=CC(=C(OCC(C)C)C=C2)C#N

> <Precursor_InChI>
InChI=1S/C16H16N2O3S/c1-9(2)8-21-13-5-4-11(6-12(13)7-17)15-18-10(3)14(22-15)16(19)20/h4-6,9H,8H2,1-3H3,(H,19,20)

> <Precursor_InChIKey>
BQSJTQLCZDPROO-UHFFFAOYSA-N

> <Precursor_ALogP>
3.443300

> <Precursor_Major_Isotope_Mass>
316.0881

$$$$
BTM00004
  CDK     08072416492D

 23 24  0  0  0  0  0  0  0  0999 V2000
    1.0288   -4.4964    0.0000 S   0  0  0  0  0  0  0  0  0  0  0  0
    1.1771   -3.0016    0.0000 C   0  0  0  0  0  0  0  0  0  0  0  0
   -0.1860   -2.3933    0.0000 N   0  0  0  0  0  0  0  0  0  0  0  0
   -1.1897   -3.5080    0.0000 C   0  0  0  0  0  0  0  0  0  0  0  0
   -0.4422   -4.8000    0.0000 C   0  0  0  0  0  0  0  0  0  0  0  0
   -1.0557   -6.1688    0.0000 C   0  0  0  0  0  0  0  0  0  0  0  0
   -0.1771   -7.3846    0.0000 O   0  0  0  0  0  0  0  0  0  0  0  0
   -2.5479   -6.3219    0.0000 O   0  0  0  0  0  0  0  0  0  0  0  0
   -2.6815   -3.3519    0.0000 C   0  0  0  0  0  0  0  0  0  0  0  0
    2.4743   -2.2484    0.0000 C   0  0  0  0  0  0  0  0  0  0  0  0
    3.7753   -2.9950    0.0000 C   0  0  0  0  0  0  0  0  0  0  0  0
    5.0728   -2.2407    0.0000 C   0  0  0  0  0  0  0  0  0  0  0  0
    5.0693   -0.7399    0.0000 C   0  0  0  0  0  0  0  0  0  0  0  0
    6.3665    0.0134    0.0000 O   0  0  0  0  0  0  0  0  0  0  0  0
    6.3627    1.5134    0.0000 C   0  0  0  0  0  0  0  0  0  0  0  0
    7.6599    2.2666    0.0000 C   0  0  0  0  0  0  0  0  0  0  0  0
    8.9608    1.5198    0.0000 C   0  0  0  0  0  0  0  0  0  0  0  0
    7.6562    3.7666    0.0000 C   0  0  0  0  0  0  0  0  0  0  0  0
    3.7683    0.0067    0.0000 C   0  0  0  0  0  0  0  0  0  0  0  0
    2.4708   -0.7476    0.0000 C   0  0  0  0  0  0  0  0  0  0  0  0
    6.3738   -2.9872    0.0000 C   0  0  0  0  0  0  0  0  0  0  0  0
    7.6748   -3.7338    0.0000 N   0  0  0  0  0  0  0  0  0  0  0  0
    8.9533    4.5198    0.0000 O   0  0  0  0  0  0  0  0  0  0  0  0
  1  2  1  0  0  0  0
  2  3  2  0  0  0  0
  3  4  1  0  0  0  0
  4  5  2  0  0  0  0
  1  5  1  0  0  0  0
  5  6  1  0  0  0  0
  6  7  1  0  0  0  0
  6  8  2  0  0  0  0
  4  9  1  0  0  0  0
  2 10  1  0  0  0  0
 10 11  2  0  0  0  0
 11 12  1  0  0  0  0
 12 13  2  0  0  0  0
 13 14  1  0  0  0  0
 14 15  1  0  0  0  0
 15 16  1  0  0  0  0
 16 17  1  0  0  0  0
 16 18  1  0  0  0  0
 13 19  1  0  0  0  0
 19 20  2  0  0  0  0
 10 20  1  0  0  0  0
 12 21  1  0  0  0  0
 21 22  3  0  0  0  0
 23 18  1  0  0  0  0
M  END
> <InChI>
InChI=1S/C16H16N2O4S/c1-9(7-19)8-22-13-4-3-11(5-12(13)6-17)15-18-10(2)14(23-15)16(20)21/h3-5,9,19H,7-8H2,1-2H3,(H,20,21)

> <InChIKey>
FPODSLPQWIIKKI-UHFFFAOYSA-N

> <SMILES>
S1C(=NC(=C1C(O)=O)C)C2=CC(=C(OCC(C)CO)C=C2)C#N

> <Synonyms>


> <PUBCHEM_CID>


> <Molecular_formula>
C16H16N2O4S

> <Major_Isotope_Mass>
332.083077992

> <ALogP>
2.223200000000001

> <Lipinski_Violations>
0

> <Insecticide_Likeness_Violations>
0

> <Post_Em_Herbicide_Likeness_Violations>
0

> <Metabolite_ID>
BTM00004

> <Reaction>
Hydroxylation of terminal methyl

> <Reaction_ID>
BTMR1061

> <Enzyme(s)>
CYP1A2
CYP2A6
CYP2B6
CYP2C8
CYP2C9
CYP2C19
CYP2D6
CYP2E1
CYP3A4

> <Biosystem>
HUMAN

> <Precursor_ID>
TEST0020_Febuxostat

> <Precursor_SMILES>
S1C(=NC(=C1C(O)=O)C)C2=CC(=C(OCC(C)C)C=C2)C#N

> <Precursor_InChI>
InChI=1S/C16H16N2O3S/c1-9(2)8-21-13-5-4-11(6-12(13)7-17)15-18-10(3)14(22-15)16(19)20/h4-6,9H,8H2,1-3H3,(H,19,20)

> <Precursor_InChIKey>
BQSJTQLCZDPROO-UHFFFAOYSA-N

> <Precursor_ALogP>
3.443300

> <Precursor_Major_Isotope_Mass>
316.0881

$$$$
BTM00005
  CDK     08072416492D

 22 23  0  0  0  0  0  0  0  0999 V2000
    0.7926   -3.9659    0.0000 S   0  0  0  0  0  0  0  0  0  0  0  0
    0.9409   -2.4711    0.0000 C   0  0  0  0  0  0  0  0  0  0  0  0
   -0.4222   -1.8628    0.0000 N   0  0  0  0  0  0  0  0  0  0  0  0
   -1.4259   -2.9775    0.0000 C   0  0  0  0  0  0  0  0  0  0  0  0
   -0.6784   -4.2695    0.0000 C   0  0  0  0  0  0  0  0  0  0  0  0
   -1.2919   -5.6383    0.0000 C   0  0  0  0  0  0  0  0  0  0  0  0
   -0.4133   -6.8540    0.0000 O   0  0  0  0  0  0  0  0  0  0  0  0
   -2.7841   -5.7914    0.0000 O   0  0  0  0  0  0  0  0  0  0  0  0
   -2.9177   -2.8214    0.0000 C   0  0  0  0  0  0  0  0  0  0  0  0
    2.2381   -1.7179    0.0000 C   0  0  0  0  0  0  0  0  0  0  0  0
    3.5391   -2.4645    0.0000 C   0  0  0  0  0  0  0  0  0  0  0  0
    4.8366   -1.7102    0.0000 C   0  0  0  0  0  0  0  0  0  0  0  0
    4.8331   -0.2093    0.0000 C   0  0  0  0  0  0  0  0  0  0  0  0
    6.1303    0.5439    0.0000 O   0  0  0  0  0  0  0  0  0  0  0  0
    6.1265    2.0439    0.0000 C   0  0  0  0  0  0  0  0  0  0  0  0
    7.4237    2.7971    0.0000 C   0  0  0  0  0  0  0  0  0  0  0  0
    8.7246    2.0503    0.0000 C   0  0  0  0  0  0  0  0  0  0  0  0
    7.4200    4.2971    0.0000 C   0  0  0  0  0  0  0  0  0  0  0  0
    3.5321    0.5372    0.0000 C   0  0  0  0  0  0  0  0  0  0  0  0
    2.2346   -0.2171    0.0000 C   0  0  0  0  0  0  0  0  0  0  0  0
    6.1376   -2.4567    0.0000 C   0  0  0  0  0  0  0  0  0  0  0  0
    7.4386   -3.2033    0.0000 N   0  0  0  0  0  0  0  0  0  0  0  0
  1  2  1  0  0  0  0
  2  3  2  0  0  0  0
  3  4  1  0  0  0  0
  4  5  2  0  0  0  0
  1  5  1  0  0  0  0
  5  6  1  0  0  0  0
  6  7  1  0  0  0  0
  6  8  2  0  0  0  0
  4  9  1  0  0  0  0
  2 10  1  0  0  0  0
 10 11  2  0  0  0  0
 11 12  1  0  0  0  0
 12 13  2  0  0  0  0
 13 14  1  0  0  0  0
 14 15  1  0  0  0  0
 15 16  1  0  0  0  0
 16 17  2  0  0  0  0
 16 18  1  0  0  0  0
 13 19  1  0  0  0  0
 19 20  2  0  0  0  0
 10 20  1  0  0  0  0
 12 21  1  0  0  0  0
 21 22  3  0  0  0  0
M  END
> <InChI>
InChI=1S/C16H14N2O3S/c1-9(2)8-21-13-5-4-11(6-12(13)7-17)15-18-10(3)14(22-15)16(19)20/h4-6H,1,8H2,2-3H3,(H,19,20)

> <InChIKey>
XLXWPLIVAATKQH-UHFFFAOYSA-N

> <SMILES>
S1C(=NC(=C1C(O)=O)C)C2=CC(=C(OCC(=C)C)C=C2)C#N

> <Synonyms>


> <PUBCHEM_CID>


> <Molecular_formula>
C16H14N2O3S

> <Major_Isotope_Mass>
314.07251330799994

> <ALogP>
3.314700000000001

> <Lipinski_Violations>
0

> <Insecticide_Likeness_Violations>
0

> <Post_Em_Herbicide_Likeness_Violations>
0

> <Metabolite_ID>
BTM00005

> <Reaction>
Terminal desaturation

> <Reaction_ID>
BTMR1190

> <Enzyme(s)>
CYP1A2
CYP2A6
CYP2C9
CYP2D6
CYP3A4

> <Biosystem>
HUMAN

> <Precursor_ID>
TEST0020_Febuxostat

> <Precursor_SMILES>
S1C(=NC(=C1C(O)=O)C)C2=CC(=C(OCC(C)C)C=C2)C#N

> <Precursor_InChI>
InChI=1S/C16H16N2O3S/c1-9(2)8-21-13-5-4-11(6-12(13)7-17)15-18-10(3)14(22-15)16(19)20/h4-6,9H,8H2,1-3H3,(H,19,20)

> <Precursor_InChIKey>
BQSJTQLCZDPROO-UHFFFAOYSA-N

> <Precursor_ALogP>
3.443300

> <Precursor_Major_Isotope_Mass>
316.0881

$$$$
BTM00006
  CDK     08072416492D

 23 24  0  0  0  0  0  0  0  0999 V2000
    0.8448   -4.0831    0.0000 S   0  0  0  0  0  0  0  0  0  0  0  0
    0.9931   -2.5884    0.0000 C   0  0  0  0  0  0  0  0  0  0  0  0
   -0.3700   -1.9800    0.0000 N   0  0  0  0  0  0  0  0  0  0  0  0
   -1.3737   -3.0948    0.0000 C   0  0  0  0  0  0  0  0  0  0  0  0
   -0.6262   -4.3868    0.0000 C   0  0  0  0  0  0  0  0  0  0  0  0
   -1.2397   -5.7556    0.0000 C   0  0  0  0  0  0  0  0  0  0  0  0
   -0.3611   -6.9713    0.0000 O   0  0  0  0  0  0  0  0  0  0  0  0
   -2.7319   -5.9086    0.0000 O   0  0  0  0  0  0  0  0  0  0  0  0
   -2.8655   -2.9386    0.0000 C   0  0  0  0  0  0  0  0  0  0  0  0
    2.2903   -1.8351    0.0000 C   0  0  0  0  0  0  0  0  0  0  0  0
    3.5913   -2.5817    0.0000 C   0  0  0  0  0  0  0  0  0  0  0  0
    4.8888   -1.8274    0.0000 C   0  0  0  0  0  0  0  0  0  0  0  0
    4.8853   -0.3266    0.0000 C   0  0  0  0  0  0  0  0  0  0  0  0
    6.1825    0.4266    0.0000 O   0  0  0  0  0  0  0  0  0  0  0  0
    6.1787    1.9266    0.0000 C   0  0  0  0  0  0  0  0  0  0  0  0
    7.4759    2.6799    0.0000 C   0  0  0  0  0  0  0  0  0  0  0  0
    8.2291    1.3827    0.0000 C   0  0  0  0  0  0  0  0  0  0  0  0
    8.7731    3.4331    0.0000 C   0  0  0  0  0  0  0  0  0  0  0  0
    3.5843    0.4200    0.0000 C   0  0  0  0  0  0  0  0  0  0  0  0
    2.2868   -0.3343    0.0000 C   0  0  0  0  0  0  0  0  0  0  0  0
    6.1898   -2.5740    0.0000 C   0  0  0  0  0  0  0  0  0  0  0  0
    7.4908   -3.3205    0.0000 N   0  0  0  0  0  0  0  0  0  0  0  0
    6.7227    3.9770    0.0000 O   0  0  0  0  0  0  0  0  0  0  0  0
  1  2  1  0  0  0  0
  2  3  2  0  0  0  0
  3  4  1  0  0  0  0
  4  5  2  0  0  0  0
  1  5  1  0  0  0  0
  5  6  1  0  0  0  0
  6  7  1  0  0  0  0
  6  8  2  0  0  0  0
  4  9  1  0  0  0  0
  2 10  1  0  0  0  0
 10 11  2  0  0  0  0
 11 12  1  0  0  0  0
 12 13  2  0  0  0  0
 13 14  1  0  0  0  0
 14 15  1  0  0  0  0
 15 16  1  0  0  0  0
 16 17  1  0  0  0  0
 16 18  1  0  0  0  0
 13 19  1  0  0  0  0
 19 20  2  0  0  0  0
 10 20  1  0  0  0  0
 12 21  1  0  0  0  0
 21 22  3  0  0  0  0
 16 23  1  0  0  0  0
M  END
> <InChI>
InChI=1S/C16H16N2O4S/c1-9-13(15(19)20)23-14(18-9)10-4-5-12(11(6-10)7-17)22-8-16(2,3)21/h4-6,21H,8H2,1-3H3,(H,19,20)

> <InChIKey>
FFDDWBJYRJGZQH-UHFFFAOYSA-N

> <SMILES>
S1C(=NC(=C1C(O)=O)C)C2=CC(=C(OCC(C)(C)O)C=C2)C#N

> <Synonyms>


> <PUBCHEM_CID>


> <Molecular_formula>
C16H16N2O4S

> <Major_Isotope_Mass>
332.08307799199997

> <ALogP>
2.294600000000001

> <Lipinski_Violations>
0

> <Insecticide_Likeness_Violations>
0

> <Post_Em_Herbicide_Likeness_Violations>
0

> <Metabolite_ID>
BTM00006

> <Reaction>
Hydroxylation of penultimate aliphatic tertiary carbon

> <Reaction_ID>
BTMR1075

> <Enzyme(s)>
CYP2A6
CYP2B6
CYP2C8
CYP2C9
CYP2D6
CYP3A4

> <Biosystem>
HUMAN

> <Precursor_ID>
TEST0020_Febuxostat

> <Precursor_SMILES>
S1C(=NC(=C1C(O)=O)C)C2=CC(=C(OCC(C)C)C=C2)C#N

> <Precursor_InChI>
InChI=1S/C16H16N2O3S/c1-9(2)8-21-13-5-4-11(6-12(13)7-17)15-18-10(3)14(22-15)16(19)20/h4-6,9H,8H2,1-3H3,(H,19,20)

> <Precursor_InChIKey>
BQSJTQLCZDPROO-UHFFFAOYSA-N

> <Precursor_ALogP>
3.443300

> <Precursor_Major_Isotope_Mass>
316.0881

$$$$
BTM00007
  CDK     08072416492D

 23 24  0  0  0  0  0  0  0  0999 V2000
    0.9409   -2.4711    0.0000 C   0  0  0  0  0  0  0  0  0  0  0  0
   -0.4222   -1.8628    0.0000 N   0  0  0  0  0  0  0  0  0  0  0  0
   -1.4259   -2.9775    0.0000 C   0  0  0  0  0  0  0  0  0  0  0  0
   -0.6784   -4.2695    0.0000 C   0  0  0  0  0  0  0  0  0  0  0  0
   -1.2919   -5.6383    0.0000 C   0  0  0  0  0  0  0  0  0  0  0  0
   -2.7841   -5.7914    0.0000 O   0  0  0  0  0  0  0  0  0  0  0  0
   -0.4133   -6.8540    0.0000 O   0  0  0  0  0  0  0  0  0  0  0  0
    0.7926   -3.9659    0.0000 S   0  0  0  0  0  0  0  0  0  0  0  0
    1.9074   -4.9696    0.0000 O   0  0  0  0  0  0  0  0  0  0  0  0
   -2.9177   -2.8214    0.0000 C   0  0  0  0  0  0  0  0  0  0  0  0
    2.2381   -1.7179    0.0000 C   0  0  0  0  0  0  0  0  0  0  0  0
    3.5391   -2.4645    0.0000 C   0  0  0  0  0  0  0  0  0  0  0  0
    4.8366   -1.7102    0.0000 C   0  0  0  0  0  0  0  0  0  0  0  0
    4.8331   -0.2093    0.0000 C   0  0  0  0  0  0  0  0  0  0  0  0
    6.1303    0.5439    0.0000 O   0  0  0  0  0  0  0  0  0  0  0  0
    6.1265    2.0439    0.0000 C   0  0  0  0  0  0  0  0  0  0  0  0
    7.4237    2.7971    0.0000 C   0  0  0  0  0  0  0  0  0  0  0  0
    7.4200    4.2971    0.0000 C   0  0  0  0  0  0  0  0  0  0  0  0
    8.7246    2.0503    0.0000 C   0  0  0  0  0  0  0  0  0  0  0  0
    3.5321    0.5372    0.0000 C   0  0  0  0  0  0  0  0  0  0  0  0
    2.2346   -0.2171    0.0000 C   0  0  0  0  0  0  0  0  0  0  0  0
    6.1376   -2.4567    0.0000 C   0  0  0  0  0  0  0  0  0  0  0  0
    7.4386   -3.2033    0.0000 N   0  0  0  0  0  0  0  0  0  0  0  0
  1  2  2  0  0  0  0
  2  3  1  0  0  0  0
  3  4  2  0  0  0  0
  4  5  1  0  0  0  0
  5  6  1  0  0  0  0
  5  7  2  0  0  0  0
  4  8  1  0  0  0  0
  1  8  1  0  0  0  0
  8  9  2  0  0  0  0
  3 10  1  0  0  0  0
  1 11  1  0  0  0  0
 11 12  2  0  0  0  0
 12 13  1  0  0  0  0
 13 14  2  0  0  0  0
 14 15  1  0  0  0  0
 15 16  1  0  0  0  0
 16 17  1  0  0  0  0
 17 18  1  0  0  0  0
 17 19  1  0  0  0  0
 14 20  1  0  0  0  0
 20 21  2  0  0  0  0
 11 21  1  0  0  0  0
 13 22  1  0  0  0  0
 22 23  3  0  0  0  0
M  END
> <InChI>
InChI=1S/C16H16N2O4S/c1-9(2)8-22-13-5-4-11(6-12(13)7-17)15-18-10(3)14(16(19)20)23(15)21/h4-6,9H,8H2,1-3H3,(H,19,20)

> <InChIKey>
KEOXYHYYRVCCAU-UHFFFAOYSA-N

> <SMILES>
C1(=NC(=C(C(O)=O)S1=O)C)C2=CC(=C(OCC(C)C)C=C2)C#N

> <Synonyms>


> <PUBCHEM_CID>


> <Molecular_formula>
C16H16N2O4S

> <Major_Isotope_Mass>
332.08307799199997

> <ALogP>
2.8751999999999995

> <Lipinski_Violations>
0

> <Insecticide_Likeness_Violations>
0

> <Post_Em_Herbicide_Likeness_Violations>
0

> <Metabolite_ID>
BTM00007

> <Reaction>
SNP-Oxidation from CyProduct

> <Reaction_ID>
BTMR1329

> <Enzyme(s)>
CYP2C8
CYP2C9

> <Biosystem>
HUMAN

> <Precursor_ID>
TEST0020_Febuxostat

> <Precursor_SMILES>
S1C(=NC(=C1C(O)=O)C)C2=CC(=C(OCC(C)C)C=C2)C#N

> <Precursor_InChI>
InChI=1S/C16H16N2O3S/c1-9(2)8-21-13-5-4-11(6-12(13)7-17)15-18-10(3)14(22-15)16(19)20/h4-6,9H,8H2,1-3H3,(H,19,20)

> <Precursor_InChIKey>
BQSJTQLCZDPROO-UHFFFAOYSA-N

> <Precursor_ALogP>
3.443300

> <Precursor_Major_Isotope_Mass>
316.0881

$$$$
