BTM00001
  CDK     0807241703

 11 11  0  0  0  0  0  0  0  0999 V2000
    0.0000    0.0000    0.0000 O   0  0  0  0  0  0  0  0  0  0  0  0
    0.0000    0.0000    0.0000 C   0  0  0  0  0  0  0  0  0  0  0  0
    0.0000    0.0000    0.0000 C   0  0  0  0  0  0  0  0  0  0  0  0
    0.0000    0.0000    0.0000 N   0  0  0  0  0  0  0  0  0  0  0  0
    0.0000    0.0000    0.0000 C   0  0  0  0  0  0  0  0  0  0  0  0
    0.0000    0.0000    0.0000 C   0  0  0  0  0  0  0  0  0  0  0  0
    0.0000    0.0000    0.0000 C   0  0  0  0  0  0  0  0  0  0  0  0
    0.0000    0.0000    0.0000 O   0  0  0  0  0  0  0  0  0  0  0  0
    0.0000    0.0000    0.0000 C   0  0  0  0  0  0  0  0  0  0  0  0
    0.0000    0.0000    0.0000 C   0  0  0  0  0  0  0  0  0  0  0  0
    0.0000    0.0000    0.0000 O   0  0  0  0  0  0  0  0  0  0  0  0
  1  2  1  0  0  0  0
  2  3  2  0  0  0  0
  3  4  1  0  0  0  0
  4  5  1  0  0  0  0
  5  6  2  0  0  0  0
  6  7  1  0  0  0  0
  2  7  1  0  0  0  0
  7  8  2  0  0  0  0
  4  9  1  0  0  0  0
  3 10  1  0  0  0  0
 10 11  1  0  0  0  0
M  END
> <InChI>
InChI=1S/C7H9NO3/c1-8-3-2-6(10)7(11)5(8)4-9/h2-3,9,11H,4H2,1H3

> <InChIKey>
USQKJVRETHWJNS-UHFFFAOYSA-N

> <SMILES>
OC1=C(N(C=CC1=O)C)CO

> <Synonyms>


> <PUBCHEM_CID>


> <Molecular_formula>
C7H9NO3

> <Major_Isotope_Mass>
155.058243148

> <ALogP>
0.4348999999999998

> <Lipinski_Violations>
0

> <Insecticide_Likeness_Violations>
0

> <Post_Em_Herbicide_Likeness_Violations>
0

> <Metabolite_ID>
BTM00001

> <Reaction>
Hydroxylation from CyProduct

> <Reaction_ID>
BTMR1328

> <Enzyme(s)>
CYP2A6
CYP2C9
CYP3A4

> <Biosystem>
HUMAN

> <Precursor_ID>
TEST0000_Deferiprone

> <Precursor_SMILES>
OC1=C(N(C=CC1=O)C)C

> <Precursor_InChI>
InChI=1S/C7H9NO2/c1-5-7(10)6(9)3-4-8(5)2/h3-4,10H,1-2H3

> <Precursor_InChIKey>
TZXKOCQBRNJULO-UHFFFAOYSA-N

> <Precursor_ALogP>


> <Precursor_Major_Isotope_Mass>
139.0633

$$$$
BTM00002
  CDK     0807241703

  9  9  0  0  0  0  0  0  0  0999 V2000
    0.0000    0.0000    0.0000 O   0  0  0  0  0  0  0  0  0  0  0  0
    0.0000    0.0000    0.0000 C   0  0  0  0  0  0  0  0  0  0  0  0
    0.0000    0.0000    0.0000 C   0  0  0  0  0  0  0  0  0  0  0  0
    0.0000    0.0000    0.0000 C   0  0  0  0  0  0  0  0  0  0  0  0
    0.0000    0.0000    0.0000 N   0  0  0  0  0  0  0  0  0  0  0  0
    0.0000    0.0000    0.0000 C   0  0  0  0  0  0  0  0  0  0  0  0
    0.0000    0.0000    0.0000 C   0  0  0  0  0  0  0  0  0  0  0  0
    0.0000    0.0000    0.0000 C   0  0  0  0  0  0  0  0  0  0  0  0
    0.0000    0.0000    0.0000 O   0  0  0  0  0  0  0  0  0  0  0  0
  1  2  1  0  0  0  0
  2  3  2  0  0  0  0
  3  4  1  0  0  0  0
  3  5  1  0  0  0  0
  5  6  1  0  0  0  0
  6  7  2  0  0  0  0
  7  8  1  0  0  0  0
  2  8  1  0  0  0  0
  8  9  2  0  0  0  0
M  END
> <InChI>
InChI=1S/C6H7NO2/c1-4-6(9)5(8)2-3-7-4/h2-3,9H,1H3,(H,7,8)

> <InChIKey>
UVOPIJQQMRLUAD-UHFFFAOYSA-N

> <SMILES>
OC1=C(C)NC=CC1=O

> <Synonyms>


> <PUBCHEM_CID>


> <Molecular_formula>
C6H7NO2

> <Major_Isotope_Mass>
125.047678464

> <ALogP>
0.6875999999999997

> <Lipinski_Violations>
0

> <Insecticide_Likeness_Violations>
0

> <Post_Em_Herbicide_Likeness_Violations>
0

> <Metabolite_ID>
BTM00002

> <Reaction>
N-Dealkylation from CyProduct

> <Reaction_ID>
BTMR1332

> <Enzyme(s)>
CYP2A6
CYP2C9
CYP2D6
CYP2E1
CYP3A4

> <Biosystem>
HUMAN

> <Precursor_ID>
TEST0000_Deferiprone

> <Precursor_SMILES>
OC1=C(N(C=CC1=O)C)C

> <Precursor_InChI>
InChI=1S/C7H9NO2/c1-5-7(10)6(9)3-4-8(5)2/h3-4,10H,1-2H3

> <Precursor_InChIKey>
TZXKOCQBRNJULO-UHFFFAOYSA-N

> <Precursor_ALogP>


> <Precursor_Major_Isotope_Mass>
139.0633

$$$$
BTM00003
  CDK     0807241703

  2  1  0  0  0  0  0  0  0  0999 V2000
    0.0000    0.0000    0.0000 O   0  0  0  0  0  0  0  0  0  0  0  0
    0.0000    0.0000    0.0000 C   0  0  0  0  0  0  0  0  0  0  0  0
  1  2  2  0  0  0  0
M  END
> <InChI>
InChI=1S/CH2O/c1-2/h1H2

> <InChIKey>
WSFSSNUMVMOOMR-UHFFFAOYSA-N

> <SMILES>
O=C

> <Synonyms>


> <PUBCHEM_CID>


> <Molecular_formula>
CH2O

> <Major_Isotope_Mass>
30.010564684

> <ALogP>
-0.8841

> <Lipinski_Violations>
0

> <Insecticide_Likeness_Violations>
0

> <Post_Em_Herbicide_Likeness_Violations>
0

> <Metabolite_ID>
BTM00003

> <Reaction>
N-Dealkylation from CyProduct

> <Reaction_ID>
BTMR1332

> <Enzyme(s)>
CYP2A6
CYP2C9
CYP2D6
CYP2E1
CYP3A4

> <Biosystem>
HUMAN

> <Precursor_ID>
TEST0000_Deferiprone

> <Precursor_SMILES>
OC1=C(N(C=CC1=O)C)C

> <Precursor_InChI>
InChI=1S/C7H9NO2/c1-5-7(10)6(9)3-4-8(5)2/h3-4,10H,1-2H3

> <Precursor_InChIKey>
TZXKOCQBRNJULO-UHFFFAOYSA-N

> <Precursor_ALogP>


> <Precursor_Major_Isotope_Mass>
139.0633

$$$$
