BTM00001
  CDK     0807241704

 34 37  0  0  0  0  0  0  0  0999 V2000
    0.0000    0.0000    0.0000 Cl  0  0  0  0  0  0  0  0  0  0  0  0
    0.0000    0.0000    0.0000 C   0  0  0  0  0  0  0  0  0  0  0  0
    0.0000    0.0000    0.0000 C   0  0  0  0  0  0  0  0  0  0  0  0
    0.0000    0.0000    0.0000 C   0  0  0  0  0  0  0  0  0  0  0  0
    0.0000    0.0000    0.0000 N   0  0  0  0  0  0  0  0  0  0  0  0
    0.0000    0.0000    0.0000 C   0  0  0  0  0  0  0  0  0  0  0  0
    0.0000    0.0000    0.0000 N   0  0  0  0  0  0  0  0  0  0  0  0
    0.0000    0.0000    0.0000 C   0  0  0  0  0  0  0  0  0  0  0  0
    0.0000    0.0000    0.0000 N   0  0  0  0  0  0  0  0  0  0  0  0
    0.0000    0.0000    0.0000 C   0  0  0  0  0  0  0  0  0  0  0  0
    0.0000    0.0000    0.0000 C   0  0  0  0  0  0  0  0  0  0  0  0
    0.0000    0.0000    0.0000 C   0  0  0  0  0  0  0  0  0  0  0  0
    0.0000    0.0000    0.0000 C   0  0  0  0  0  0  0  0  0  0  0  0
    0.0000    0.0000    0.0000 N   0  0  0  0  0  0  0  0  0  0  0  0
    0.0000    0.0000    0.0000 C   0  0  0  0  0  0  0  0  0  0  0  0
    0.0000    0.0000    0.0000 O   0  0  0  0  0  0  0  0  0  0  0  0
    0.0000    0.0000    0.0000 C   0  0  0  0  0  0  0  0  0  0  0  0
    0.0000    0.0000    0.0000 C   0  0  0  0  0  0  0  0  0  0  0  0
    0.0000    0.0000    0.0000 C   0  0  0  0  0  0  0  0  0  0  0  0
    0.0000    0.0000    0.0000 N   0  0  0  0  0  0  0  0  0  0  0  0
    0.0000    0.0000    0.0000 C   0  0  0  0  0  0  0  0  0  0  0  0
    0.0000    0.0000    0.0000 C   0  0  0  0  0  0  0  0  0  0  0  0
    0.0000    0.0000    0.0000 C   0  0  0  0  0  0  0  0  0  0  0  0
    0.0000    0.0000    0.0000 C   0  0  0  0  0  0  0  0  0  0  0  0
    0.0000    0.0000    0.0000 C   0  0  0  0  0  0  0  0  0  0  0  0
    0.0000    0.0000    0.0000 O   0  0  0  0  0  0  0  0  0  0  0  0
    0.0000    0.0000    0.0000 C   0  0  0  0  0  0  0  0  0  0  0  0
    0.0000    0.0000    0.0000 O   0  0  0  0  0  0  0  0  0  0  0  0
    0.0000    0.0000    0.0000 C   0  0  0  0  0  0  0  0  0  0  0  0
    0.0000    0.0000    0.0000 C   0  0  0  0  0  0  0  0  0  0  0  0
    0.0000    0.0000    0.0000 C   0  0  0  0  0  0  0  0  0  0  0  0
    0.0000    0.0000    0.0000 C   0  0  0  0  0  0  0  0  0  0  0  0
    0.0000    0.0000    0.0000 C   0  0  0  0  0  0  0  0  0  0  0  0
    0.0000    0.0000    0.0000 F   0  0  0  0  0  0  0  0  0  0  0  0
  1  2  1  0  0  0  0
  2  3  1  0  0  0  0
  3  4  2  0  0  0  0
  4  5  1  0  0  0  0
  5  6  1  0  0  0  0
  6  7  1  0  0  0  0
  7  8  2  0  0  0  0
  8  9  1  0  0  0  0
  9 10  2  0  0  0  0
 10 11  1  0  0  0  0
  6 11  2  0  0  0  0
 11 12  1  0  0  0  0
 12 13  2  0  0  0  0
 13 14  1  0  0  0  0
 14 15  1  0  0  0  0
 15 16  2  0  0  0  0
 15 17  1  0  0  0  0
 17 18  2  0  0  0  0
 18 19  1  0  0  0  0
 19 20  1  0  0  0  0
 20 21  1  0  0  0  0
 21 22  1  0  0  0  0
 22 23  1  0  0  0  0
 23 24  1  0  0  0  0
 24 25  1  0  0  0  0
 20 25  1  0  0  0  0
 22 26  1  0  0  0  0
 13 27  1  0  0  0  0
 27 28  1  0  0  0  0
 28 29  1  0  0  0  0
 27 30  2  0  0  0  0
 10 30  1  0  0  0  0
  4 31  1  0  0  0  0
 31 32  2  0  0  0  0
 32 33  1  0  0  0  0
  2 33  2  0  0  0  0
 33 34  1  0  0  0  0
M  END
> <InChI>
InChI=1S/C24H25ClFN5O3/c1-34-22-12-20-17(24(28-14-27-20)29-15-6-7-19(26)18(25)10-15)11-21(22)30-23(33)5-3-9-31-8-2-4-16(32)13-31/h3,5-7,10-12,14,16,32H,2,4,8-9,13H2,1H3,(H,30,33)(H,27,28,29)

> <InChIKey>
REGZGLUPOZNEHK-UHFFFAOYSA-N

> <SMILES>
ClC=1C=C(NC=2N=CN=C3C2C=C(NC(=O)C=CCN4CC(CCC4)O)C(OC)=C3)C=CC1F

> <Synonyms>


> <PUBCHEM_CID>


> <Molecular_formula>
C24H25ClFN5O3

> <Major_Isotope_Mass>
485.16299556

> <ALogP>
4.088900000000001

> <Lipinski_Violations>
0

> <Insecticide_Likeness_Violations>
1

> <Post_Em_Herbicide_Likeness_Violations>
1

> <Metabolite_ID>
BTM00001

> <Reaction>
Hydroxylation from CyProduct

> <Reaction_ID>
BTMR1328

> <Enzyme(s)>
CYP2C9

> <Biosystem>
HUMAN

> <Precursor_ID>
TEST0007_Dacomitinib

> <Precursor_SMILES>
ClC=1C=C(NC=2N=CN=C3C2C=C(NC(=O)\C=C\CN4CCCCC4)C(OC)=C3)C=CC1F

> <Precursor_InChI>
InChI=1S/C24H25ClFN5O2/c1-33-22-14-20-17(24(28-15-27-20)29-16-7-8-19(26)18(25)12-16)13-21(22)30-23(32)6-5-11-31-9-3-2-4-10-31/h5-8,12-15H,2-4,9-11H2,1H3,(H,30,32)(H,27,28,29)/b6-5+

> <Precursor_InChIKey>
LVXJQMNHJWSHET-AATRIKPKSA-N

> <Precursor_ALogP>


> <Precursor_Major_Isotope_Mass>
469.1680

$$$$
BTM00002
  CDK     0807241704

 34 37  0  0  0  0  0  0  0  0999 V2000
    0.0000    0.0000    0.0000 Cl  0  0  0  0  0  0  0  0  0  0  0  0
    0.0000    0.0000    0.0000 C   0  0  0  0  0  0  0  0  0  0  0  0
    0.0000    0.0000    0.0000 C   0  0  0  0  0  0  0  0  0  0  0  0
    0.0000    0.0000    0.0000 C   0  0  0  0  0  0  0  0  0  0  0  0
    0.0000    0.0000    0.0000 C   0  0  0  0  0  0  0  0  0  0  0  0
    0.0000    0.0000    0.0000 C   0  0  0  0  0  0  0  0  0  0  0  0
    0.0000    0.0000    0.0000 C   0  0  0  0  0  0  0  0  0  0  0  0
    0.0000    0.0000    0.0000 F   0  0  0  0  0  0  0  0  0  0  0  0
    0.0000    0.0000    0.0000 N   0  3  0  0  0  0  0  0  0  0  0  0
    0.0000    0.0000    0.0000 C   0  0  0  0  0  0  0  0  0  0  0  0
    0.0000    0.0000    0.0000 N   0  0  0  0  0  0  0  0  0  0  0  0
    0.0000    0.0000    0.0000 C   0  0  0  0  0  0  0  0  0  0  0  0
    0.0000    0.0000    0.0000 N   0  0  0  0  0  0  0  0  0  0  0  0
    0.0000    0.0000    0.0000 C   0  0  0  0  0  0  0  0  0  0  0  0
    0.0000    0.0000    0.0000 C   0  0  0  0  0  0  0  0  0  0  0  0
    0.0000    0.0000    0.0000 C   0  0  0  0  0  0  0  0  0  0  0  0
    0.0000    0.0000    0.0000 C   0  0  0  0  0  0  0  0  0  0  0  0
    0.0000    0.0000    0.0000 N   0  0  0  0  0  0  0  0  0  0  0  0
    0.0000    0.0000    0.0000 C   0  0  0  0  0  0  0  0  0  0  0  0
    0.0000    0.0000    0.0000 O   0  0  0  0  0  0  0  0  0  0  0  0
    0.0000    0.0000    0.0000 C   0  0  0  0  0  0  0  0  0  0  0  0
    0.0000    0.0000    0.0000 C   0  0  0  0  0  0  0  0  0  0  0  0
    0.0000    0.0000    0.0000 C   0  0  0  0  0  0  0  0  0  0  0  0
    0.0000    0.0000    0.0000 N   0  0  0  0  0  0  0  0  0  0  0  0
    0.0000    0.0000    0.0000 C   0  0  0  0  0  0  0  0  0  0  0  0
    0.0000    0.0000    0.0000 C   0  0  0  0  0  0  0  0  0  0  0  0
    0.0000    0.0000    0.0000 C   0  0  0  0  0  0  0  0  0  0  0  0
    0.0000    0.0000    0.0000 C   0  0  0  0  0  0  0  0  0  0  0  0
    0.0000    0.0000    0.0000 C   0  0  0  0  0  0  0  0  0  0  0  0
    0.0000    0.0000    0.0000 C   0  0  0  0  0  0  0  0  0  0  0  0
    0.0000    0.0000    0.0000 O   0  0  0  0  0  0  0  0  0  0  0  0
    0.0000    0.0000    0.0000 C   0  0  0  0  0  0  0  0  0  0  0  0
    0.0000    0.0000    0.0000 C   0  0  0  0  0  0  0  0  0  0  0  0
    0.0000    0.0000    0.0000 O   0  5  0  0  0  0  0  0  0  0  0  0
  1  2  1  0  0  0  0
  2  3  1  0  0  0  0
  3  4  2  0  0  0  0
  4  5  1  0  0  0  0
  5  6  2  0  0  0  0
  6  7  1  0  0  0  0
  2  7  2  0  0  0  0
  7  8  1  0  0  0  0
  4  9  1  0  0  0  0
  9 10  1  0  0  0  0
 10 11  1  0  0  0  0
 11 12  2  0  0  0  0
 12 13  1  0  0  0  0
 13 14  2  0  0  0  0
 14 15  1  0  0  0  0
 10 15  2  0  0  0  0
 15 16  1  0  0  0  0
 16 17  2  0  0  0  0
 17 18  1  0  0  0  0
 18 19  1  0  0  0  0
 19 20  2  0  0  0  0
 19 21  1  0  0  0  0
 21 22  2  0  0  0  0
 22 23  1  0  0  0  0
 23 24  1  0  0  0  0
 24 25  1  0  0  0  0
 25 26  1  0  0  0  0
 26 27  1  0  0  0  0
 27 28  1  0  0  0  0
 28 29  1  0  0  0  0
 24 29  1  0  0  0  0
 17 30  1  0  0  0  0
 30 31  1  0  0  0  0
 31 32  1  0  0  0  0
 30 33  2  0  0  0  0
 14 33  1  0  0  0  0
  9 34  1  0  0  0  0
M  CHG  1   9   1
M  CHG  1  34  -1
M  END
> <InChI>
InChI=1S/C24H25ClFN5O3/c1-34-22-14-20-17(13-21(22)29-23(32)6-5-11-30-9-3-2-4-10-30)24(28-15-27-20)31(33)16-7-8-19(26)18(25)12-16/h5-8,12-15,31H,2-4,9-11H2,1H3,(H,29,32)

> <InChIKey>
VCWYQGVDBSESKU-UHFFFAOYSA-N

> <SMILES>
ClC=1C=C(C=CC1F)[NH+](C=2N=CN=C3C2C=C(NC(=O)C=CCN4CCCCC4)C(OC)=C3)[O-]

> <Synonyms>


> <PUBCHEM_CID>


> <Molecular_formula>
C24H25ClFN5O3

> <Major_Isotope_Mass>
485.16299555999996

> <ALogP>
4.537999999999999

> <Lipinski_Violations>
0

> <Insecticide_Likeness_Violations>
0

> <Post_Em_Herbicide_Likeness_Violations>
0

> <Metabolite_ID>
BTM00002

> <Reaction>
SNP-Oxidation from CyProduct

> <Reaction_ID>
BTMR1329

> <Enzyme(s)>
CYP2B6
CYP2C19

> <Biosystem>
HUMAN

> <Precursor_ID>
TEST0007_Dacomitinib

> <Precursor_SMILES>
ClC=1C=C(NC=2N=CN=C3C2C=C(NC(=O)\C=C\CN4CCCCC4)C(OC)=C3)C=CC1F

> <Precursor_InChI>
InChI=1S/C24H25ClFN5O2/c1-33-22-14-20-17(24(28-15-27-20)29-16-7-8-19(26)18(25)12-16)13-21(22)30-23(32)6-5-11-31-9-3-2-4-10-31/h5-8,12-15H,2-4,9-11H2,1H3,(H,30,32)(H,27,28,29)/b6-5+

> <Precursor_InChIKey>
LVXJQMNHJWSHET-AATRIKPKSA-N

> <Precursor_ALogP>


> <Precursor_Major_Isotope_Mass>
469.1680

$$$$
BTM00003
  CDK     0807241704

  2  1  0  0  0  0  0  0  0  0999 V2000
    0.0000    0.0000    0.0000 O   0  0  0  0  0  0  0  0  0  0  0  0
    0.0000    0.0000    0.0000 C   0  0  0  0  0  0  0  0  0  0  0  0
  1  2  2  0  0  0  0
M  END
> <InChI>
InChI=1S/CH2O/c1-2/h1H2

> <InChIKey>
WSFSSNUMVMOOMR-UHFFFAOYSA-N

> <SMILES>
O=C

> <Synonyms>


> <PUBCHEM_CID>


> <Molecular_formula>
CH2O

> <Major_Isotope_Mass>
30.010564684

> <ALogP>
-0.8841

> <Lipinski_Violations>
0

> <Insecticide_Likeness_Violations>
0

> <Post_Em_Herbicide_Likeness_Violations>
0

> <Metabolite_ID>
BTM00003

> <Reaction>
O-Dealkylation from CyProduct

> <Reaction_ID>
BTMR1331

> <Enzyme(s)>
CYP2C8
CYP2C9
CYP2C19
CYP2D6

> <Biosystem>
HUMAN

> <Precursor_ID>
TEST0007_Dacomitinib

> <Precursor_SMILES>
ClC=1C=C(NC=2N=CN=C3C2C=C(NC(=O)\C=C\CN4CCCCC4)C(OC)=C3)C=CC1F

> <Precursor_InChI>
InChI=1S/C24H25ClFN5O2/c1-33-22-14-20-17(24(28-15-27-20)29-16-7-8-19(26)18(25)12-16)13-21(22)30-23(32)6-5-11-31-9-3-2-4-10-31/h5-8,12-15H,2-4,9-11H2,1H3,(H,30,32)(H,27,28,29)/b6-5+

> <Precursor_InChIKey>
LVXJQMNHJWSHET-AATRIKPKSA-N

> <Precursor_ALogP>


> <Precursor_Major_Isotope_Mass>
469.1680

$$$$
BTM00004
  CDK     0807241704

 32 35  0  0  0  0  0  0  0  0999 V2000
    0.0000    0.0000    0.0000 Cl  0  0  0  0  0  0  0  0  0  0  0  0
    0.0000    0.0000    0.0000 C   0  0  0  0  0  0  0  0  0  0  0  0
    0.0000    0.0000    0.0000 C   0  0  0  0  0  0  0  0  0  0  0  0
    0.0000    0.0000    0.0000 C   0  0  0  0  0  0  0  0  0  0  0  0
    0.0000    0.0000    0.0000 N   0  0  0  0  0  0  0  0  0  0  0  0
    0.0000    0.0000    0.0000 C   0  0  0  0  0  0  0  0  0  0  0  0
    0.0000    0.0000    0.0000 N   0  0  0  0  0  0  0  0  0  0  0  0
    0.0000    0.0000    0.0000 C   0  0  0  0  0  0  0  0  0  0  0  0
    0.0000    0.0000    0.0000 N   0  0  0  0  0  0  0  0  0  0  0  0
    0.0000    0.0000    0.0000 C   0  0  0  0  0  0  0  0  0  0  0  0
    0.0000    0.0000    0.0000 C   0  0  0  0  0  0  0  0  0  0  0  0
    0.0000    0.0000    0.0000 C   0  0  0  0  0  0  0  0  0  0  0  0
    0.0000    0.0000    0.0000 C   0  0  0  0  0  0  0  0  0  0  0  0
    0.0000    0.0000    0.0000 N   0  0  0  0  0  0  0  0  0  0  0  0
    0.0000    0.0000    0.0000 C   0  0  0  0  0  0  0  0  0  0  0  0
    0.0000    0.0000    0.0000 O   0  0  0  0  0  0  0  0  0  0  0  0
    0.0000    0.0000    0.0000 C   0  0  0  0  0  0  0  0  0  0  0  0
    0.0000    0.0000    0.0000 C   0  0  0  0  0  0  0  0  0  0  0  0
    0.0000    0.0000    0.0000 C   0  0  0  0  0  0  0  0  0  0  0  0
    0.0000    0.0000    0.0000 N   0  0  0  0  0  0  0  0  0  0  0  0
    0.0000    0.0000    0.0000 C   0  0  0  0  0  0  0  0  0  0  0  0
    0.0000    0.0000    0.0000 C   0  0  0  0  0  0  0  0  0  0  0  0
    0.0000    0.0000    0.0000 C   0  0  0  0  0  0  0  0  0  0  0  0
    0.0000    0.0000    0.0000 C   0  0  0  0  0  0  0  0  0  0  0  0
    0.0000    0.0000    0.0000 C   0  0  0  0  0  0  0  0  0  0  0  0
    0.0000    0.0000    0.0000 C   0  0  0  0  0  0  0  0  0  0  0  0
    0.0000    0.0000    0.0000 C   0  0  0  0  0  0  0  0  0  0  0  0
    0.0000    0.0000    0.0000 O   0  0  0  0  0  0  0  0  0  0  0  0
    0.0000    0.0000    0.0000 C   0  0  0  0  0  0  0  0  0  0  0  0
    0.0000    0.0000    0.0000 C   0  0  0  0  0  0  0  0  0  0  0  0
    0.0000    0.0000    0.0000 C   0  0  0  0  0  0  0  0  0  0  0  0
    0.0000    0.0000    0.0000 F   0  0  0  0  0  0  0  0  0  0  0  0
  1  2  1  0  0  0  0
  2  3  1  0  0  0  0
  3  4  2  0  0  0  0
  4  5  1  0  0  0  0
  5  6  1  0  0  0  0
  6  7  1  0  0  0  0
  7  8  2  0  0  0  0
  8  9  1  0  0  0  0
  9 10  2  0  0  0  0
 10 11  1  0  0  0  0
  6 11  2  0  0  0  0
 11 12  1  0  0  0  0
 12 13  2  0  0  0  0
 13 14  1  0  0  0  0
 14 15  1  0  0  0  0
 15 16  2  0  0  0  0
 15 17  1  0  0  0  0
 17 18  2  0  0  0  0
 18 19  1  0  0  0  0
 19 20  1  0  0  0  0
 20 21  1  0  0  0  0
 21 22  1  0  0  0  0
 22 23  1  0  0  0  0
 23 24  1  0  0  0  0
 24 25  1  0  0  0  0
 20 25  1  0  0  0  0
 13 26  1  0  0  0  0
 26 27  2  0  0  0  0
 10 27  1  0  0  0  0
 26 28  1  0  0  0  0
  4 29  1  0  0  0  0
 29 30  2  0  0  0  0
 30 31  1  0  0  0  0
  2 31  2  0  0  0  0
 31 32  1  0  0  0  0
M  END
> <InChI>
InChI=1S/C23H23ClFN5O2/c24-17-11-15(6-7-18(17)25)28-23-16-12-20(21(31)13-19(16)26-14-27-23)29-22(32)5-4-10-30-8-2-1-3-9-30/h4-7,11-14,31H,1-3,8-10H2,(H,29,32)(H,26,27,28)

> <InChIKey>
VFBCTMFFOJGSLU-UHFFFAOYSA-N

> <SMILES>
ClC=1C=C(NC=2N=CN=C3C2C=C(NC(=O)C=CCN4CCCCC4)C(=C3)O)C=CC1F

> <Synonyms>


> <PUBCHEM_CID>


> <Molecular_formula>
C23H23ClFN5O2

> <Major_Isotope_Mass>
455.152430876

> <ALogP>
4.804800000000003

> <Lipinski_Violations>
0

> <Insecticide_Likeness_Violations>
1

> <Post_Em_Herbicide_Likeness_Violations>
1

> <Metabolite_ID>
BTM00004

> <Reaction>
O-Dealkylation from CyProduct

> <Reaction_ID>
BTMR1331

> <Enzyme(s)>
CYP2C8
CYP2C9
CYP2C19
CYP2D6

> <Biosystem>
HUMAN

> <Precursor_ID>
TEST0007_Dacomitinib

> <Precursor_SMILES>
ClC=1C=C(NC=2N=CN=C3C2C=C(NC(=O)\C=C\CN4CCCCC4)C(OC)=C3)C=CC1F

> <Precursor_InChI>
InChI=1S/C24H25ClFN5O2/c1-33-22-14-20-17(24(28-15-27-20)29-16-7-8-19(26)18(25)12-16)13-21(22)30-23(32)6-5-11-31-9-3-2-4-10-31/h5-8,12-15H,2-4,9-11H2,1H3,(H,30,32)(H,27,28,29)/b6-5+

> <Precursor_InChIKey>
LVXJQMNHJWSHET-AATRIKPKSA-N

> <Precursor_ALogP>


> <Precursor_Major_Isotope_Mass>
469.1680

$$$$
BTM00005
  CDK     0807241704

 28 30  0  0  0  0  0  0  0  0999 V2000
    0.0000    0.0000    0.0000 Cl  0  0  0  0  0  0  0  0  0  0  0  0
    0.0000    0.0000    0.0000 C   0  0  0  0  0  0  0  0  0  0  0  0
    0.0000    0.0000    0.0000 C   0  0  0  0  0  0  0  0  0  0  0  0
    0.0000    0.0000    0.0000 C   0  0  0  0  0  0  0  0  0  0  0  0
    0.0000    0.0000    0.0000 N   0  0  0  0  0  0  0  0  0  0  0  0
    0.0000    0.0000    0.0000 C   0  0  0  0  0  0  0  0  0  0  0  0
    0.0000    0.0000    0.0000 N   0  0  0  0  0  0  0  0  0  0  0  0
    0.0000    0.0000    0.0000 C   0  0  0  0  0  0  0  0  0  0  0  0
    0.0000    0.0000    0.0000 N   0  0  0  0  0  0  0  0  0  0  0  0
    0.0000    0.0000    0.0000 C   0  0  0  0  0  0  0  0  0  0  0  0
    0.0000    0.0000    0.0000 C   0  0  0  0  0  0  0  0  0  0  0  0
    0.0000    0.0000    0.0000 C   0  0  0  0  0  0  0  0  0  0  0  0
    0.0000    0.0000    0.0000 C   0  0  0  0  0  0  0  0  0  0  0  0
    0.0000    0.0000    0.0000 N   0  0  0  0  0  0  0  0  0  0  0  0
    0.0000    0.0000    0.0000 C   0  0  0  0  0  0  0  0  0  0  0  0
    0.0000    0.0000    0.0000 O   0  0  0  0  0  0  0  0  0  0  0  0
    0.0000    0.0000    0.0000 C   0  0  0  0  0  0  0  0  0  0  0  0
    0.0000    0.0000    0.0000 C   0  0  0  0  0  0  0  0  0  0  0  0
    0.0000    0.0000    0.0000 C   0  0  0  0  0  0  0  0  0  0  0  0
    0.0000    0.0000    0.0000 O   0  0  0  0  0  0  0  0  0  0  0  0
    0.0000    0.0000    0.0000 C   0  0  0  0  0  0  0  0  0  0  0  0
    0.0000    0.0000    0.0000 O   0  0  0  0  0  0  0  0  0  0  0  0
    0.0000    0.0000    0.0000 C   0  0  0  0  0  0  0  0  0  0  0  0
    0.0000    0.0000    0.0000 C   0  0  0  0  0  0  0  0  0  0  0  0
    0.0000    0.0000    0.0000 C   0  0  0  0  0  0  0  0  0  0  0  0
    0.0000    0.0000    0.0000 C   0  0  0  0  0  0  0  0  0  0  0  0
    0.0000    0.0000    0.0000 C   0  0  0  0  0  0  0  0  0  0  0  0
    0.0000    0.0000    0.0000 F   0  0  0  0  0  0  0  0  0  0  0  0
  1  2  1  0  0  0  0
  2  3  1  0  0  0  0
  3  4  2  0  0  0  0
  4  5  1  0  0  0  0
  5  6  1  0  0  0  0
  6  7  1  0  0  0  0
  7  8  2  0  0  0  0
  8  9  1  0  0  0  0
  9 10  2  0  0  0  0
 10 11  1  0  0  0  0
  6 11  2  0  0  0  0
 11 12  1  0  0  0  0
 12 13  2  0  0  0  0
 13 14  1  0  0  0  0
 14 15  1  0  0  0  0
 15 16  2  0  0  0  0
 15 17  1  0  0  0  0
 17 18  2  0  0  0  0
 18 19  1  0  0  0  0
 19 20  2  0  0  0  0
 13 21  1  0  0  0  0
 21 22  1  0  0  0  0
 22 23  1  0  0  0  0
 21 24  2  0  0  0  0
 10 24  1  0  0  0  0
  4 25  1  0  0  0  0
 25 26  2  0  0  0  0
 26 27  1  0  0  0  0
  2 27  2  0  0  0  0
 27 28  1  0  0  0  0
M  END
> <InChI>
InChI=1S/C19H14ClFN4O3/c1-28-17-9-15-12(8-16(17)25-18(27)3-2-6-26)19(23-10-22-15)24-11-4-5-14(21)13(20)7-11/h2-10H,1H3,(H,25,27)(H,22,23,24)

> <InChIKey>
BBWLFDMARSHNNG-UHFFFAOYSA-N

> <SMILES>
ClC=1C=C(NC=2N=CN=C3C2C=C(NC(=O)C=CC=O)C(OC)=C3)C=CC1F

> <Synonyms>


> <PUBCHEM_CID>


> <Molecular_formula>
C19H14ClFN4O3

> <Major_Isotope_Mass>
400.07384620799996

> <ALogP>
3.7168000000000005

> <Lipinski_Violations>
0

> <Insecticide_Likeness_Violations>
0

> <Post_Em_Herbicide_Likeness_Violations>
0

> <Metabolite_ID>
BTM00005

> <Reaction>
N-Dealkylation from CyProduct

> <Reaction_ID>
BTMR1332

> <Enzyme(s)>
CYP2C9

> <Biosystem>
HUMAN

> <Precursor_ID>
TEST0007_Dacomitinib

> <Precursor_SMILES>
ClC=1C=C(NC=2N=CN=C3C2C=C(NC(=O)\C=C\CN4CCCCC4)C(OC)=C3)C=CC1F

> <Precursor_InChI>
InChI=1S/C24H25ClFN5O2/c1-33-22-14-20-17(24(28-15-27-20)29-16-7-8-19(26)18(25)12-16)13-21(22)30-23(32)6-5-11-31-9-3-2-4-10-31/h5-8,12-15H,2-4,9-11H2,1H3,(H,30,32)(H,27,28,29)/b6-5+

> <Precursor_InChIKey>
LVXJQMNHJWSHET-AATRIKPKSA-N

> <Precursor_ALogP>


> <Precursor_Major_Isotope_Mass>
469.1680

$$$$
BTM00006
  CDK     0807241704

  6  6  0  0  0  0  0  0  0  0999 V2000
    0.0000    0.0000    0.0000 C   0  0  0  0  0  0  0  0  0  0  0  0
    0.0000    0.0000    0.0000 C   0  0  0  0  0  0  0  0  0  0  0  0
    0.0000    0.0000    0.0000 C   0  0  0  0  0  0  0  0  0  0  0  0
    0.0000    0.0000    0.0000 C   0  0  0  0  0  0  0  0  0  0  0  0
    0.0000    0.0000    0.0000 C   0  0  0  0  0  0  0  0  0  0  0  0
    0.0000    0.0000    0.0000 N   0  0  0  0  0  0  0  0  0  0  0  0
  1  2  1  0  0  0  0
  2  3  1  0  0  0  0
  3  4  1  0  0  0  0
  4  5  1  0  0  0  0
  5  6  1  0  0  0  0
  1  6  1  0  0  0  0
M  END
> <InChI>
InChI=1S/C5H11N/c1-2-4-6-5-3-1/h6H,1-5H2

> <InChIKey>
NQRYJNQNLNOLGT-UHFFFAOYSA-N

> <SMILES>
C1CCCCN1

> <Synonyms>


> <PUBCHEM_CID>


> <Molecular_formula>
C5H11N

> <Major_Isotope_Mass>
85.08914935199999

> <ALogP>
0.7014000000000005

> <Lipinski_Violations>
0

> <Insecticide_Likeness_Violations>
0

> <Post_Em_Herbicide_Likeness_Violations>
0

> <Metabolite_ID>
BTM00006

> <Reaction>
N-Dealkylation from CyProduct

> <Reaction_ID>
BTMR1332

> <Enzyme(s)>
CYP2C9

> <Biosystem>
HUMAN

> <Precursor_ID>
TEST0007_Dacomitinib

> <Precursor_SMILES>
ClC=1C=C(NC=2N=CN=C3C2C=C(NC(=O)\C=C\CN4CCCCC4)C(OC)=C3)C=CC1F

> <Precursor_InChI>
InChI=1S/C24H25ClFN5O2/c1-33-22-14-20-17(24(28-15-27-20)29-16-7-8-19(26)18(25)12-16)13-21(22)30-23(32)6-5-11-31-9-3-2-4-10-31/h5-8,12-15H,2-4,9-11H2,1H3,(H,30,32)(H,27,28,29)/b6-5+

> <Precursor_InChIKey>
LVXJQMNHJWSHET-AATRIKPKSA-N

> <Precursor_ALogP>


> <Precursor_Major_Isotope_Mass>
469.1680

$$$$
