BTM00001
  CDK     0807241717

  4  3  0  0  0  0  0  0  0  0999 V2000
    0.0000    0.0000    0.0000 N   0  0  0  0  0  0  0  0  0  0  0  0
    0.0000    0.0000    0.0000 C   0  0  0  0  0  0  0  0  0  0  0  0
    0.0000    0.0000    0.0000 O   0  0  0  0  0  0  0  0  0  0  0  0
    0.0000    0.0000    0.0000 O   0  0  0  0  0  0  0  0  0  0  0  0
  1  2  1  0  0  0  0
  2  3  2  0  0  0  0
  2  4  1  0  0  0  0
M  END
> <InChI>
InChI=1S/CH3NO2/c2-1(3)4/h2H2,(H,3,4)

> <InChIKey>
KXDHJXZQYSOELW-UHFFFAOYSA-N

> <SMILES>
NC(=O)O

> <Synonyms>


> <PUBCHEM_CID>


> <Molecular_formula>
CH3NO2

> <Major_Isotope_Mass>
61.016378336

> <ALogP>
-0.43989999999999996

> <Lipinski_Violations>
0

> <Insecticide_Likeness_Violations>
0

> <Post_Em_Herbicide_Likeness_Violations>
0

> <Metabolite_ID>
BTM00001

> <Reaction>
O-Dealkylation from CyProduct

> <Reaction_ID>
BTMR1331

> <Enzyme(s)>
CYP2E1

> <Biosystem>
HUMAN

> <Precursor_ID>
TEST0099_Vinyl_carbamate

> <Precursor_SMILES>
NC(=O)OC=C

> <Precursor_InChI>
InChI=1S/C3H5NO2/c1-2-6-3(4)5/h2H,1H2,(H2,4,5)

> <Precursor_InChIKey>
LVLANIHJQRZTPY-UHFFFAOYSA-N

> <Precursor_ALogP>


> <Precursor_Major_Isotope_Mass>
87.03202

$$$$
