BTM00001
  CDK     0807241707

 14 15  0  0  0  0  0  0  0  0999 V2000
    0.0000    0.0000    0.0000 C   0  0  0  0  0  0  0  0  0  0  0  0
    0.0000    0.0000    0.0000 N   0  0  0  0  0  0  0  0  0  0  0  0
    0.0000    0.0000    0.0000 C   0  0  0  0  0  0  0  0  0  0  0  0
    0.0000    0.0000    0.0000 C   0  0  0  0  0  0  0  0  0  0  0  0
    0.0000    0.0000    0.0000 N   0  0  0  0  0  0  0  0  0  0  0  0
    0.0000    0.0000    0.0000 C   0  0  0  0  0  0  0  0  0  0  0  0
    0.0000    0.0000    0.0000 C   0  0  0  0  0  0  0  0  0  0  0  0
    0.0000    0.0000    0.0000 C   0  0  0  0  0  0  0  0  0  0  0  0
    0.0000    0.0000    0.0000 O   0  0  0  0  0  0  0  0  0  0  0  0
    0.0000    0.0000    0.0000 C   0  0  0  0  0  0  0  0  0  0  0  0
    0.0000    0.0000    0.0000 C   0  0  0  0  0  0  0  0  0  0  0  0
    0.0000    0.0000    0.0000 C   0  0  0  0  0  0  0  0  0  0  0  0
    0.0000    0.0000    0.0000 C   0  0  0  0  0  0  0  0  0  0  0  0
    0.0000    0.0000    0.0000 O   0  0  0  0  0  0  0  0  0  0  0  0
  1  2  1  0  0  0  0
  2  3  1  0  0  0  0
  3  4  2  0  0  0  0
  4  5  1  0  0  0  0
  1  5  2  0  0  0  0
  4  6  1  0  0  0  0
  6  7  2  0  0  0  0
  7  8  1  0  0  0  0
  8  9  1  0  0  0  0
  9 10  1  0  0  0  0
  8 11  2  0  0  0  0
  3 11  1  0  0  0  0
  2 12  1  0  0  0  0
  1 13  1  0  0  0  0
 13 14  2  0  0  0  0
M  END
> <InChI>
InChI=1S/C10H10N2O2/c1-12-9-5-7(14-2)3-4-8(9)11-10(12)6-13/h3-6H,1-2H3

> <InChIKey>
RAFCHWOGOSKUJK-UHFFFAOYSA-N

> <SMILES>
C=1(N(C2=C(N1)C=CC(OC)=C2)C)C=O

> <Synonyms>


> <PUBCHEM_CID>


> <Molecular_formula>
C10H10N2O2

> <Major_Isotope_Mass>
190.07422756

> <ALogP>
1.7010999999999998

> <Lipinski_Violations>
0

> <Insecticide_Likeness_Violations>
0

> <Post_Em_Herbicide_Likeness_Violations>
0

> <Metabolite_ID>
BTM00001

> <Reaction>
O-Dealkylation from CyProduct

> <Reaction_ID>
BTMR1331

> <Enzyme(s)>
CYP2C9
CYP2C19

> <Biosystem>
HUMAN

> <Precursor_ID>
TEST0030_rivoglitazone

> <Precursor_SMILES>
S1C(CC2=CC=C(OCC=3N(C4=C(N3)C=CC(OC)=C4)C)C=C2)C(=O)NC1=O

> <Precursor_InChI>
InChI=1S/C20H19N3O4S/c1-23-16-10-14(26-2)7-8-15(16)21-18(23)11-27-13-5-3-12(4-6-13)9-17-19(24)22-20(25)28-17/h3-8,10,17H,9,11H2,1-2H3,(H,22,24,25)

> <Precursor_InChIKey>
XMSXOLDPMGMWTH-UHFFFAOYSA-N

> <Precursor_ALogP>


> <Precursor_Major_Isotope_Mass>
397.1096

$$$$
BTM00002
  CDK     0807241707

 15 16  0  0  0  0  0  0  0  0999 V2000
    0.0000    0.0000    0.0000 S   0  0  0  0  0  0  0  0  0  0  0  0
    0.0000    0.0000    0.0000 C   0  0  0  0  0  0  0  0  0  0  0  0
    0.0000    0.0000    0.0000 C   0  0  0  0  0  0  0  0  0  0  0  0
    0.0000    0.0000    0.0000 C   0  0  0  0  0  0  0  0  0  0  0  0
    0.0000    0.0000    0.0000 C   0  0  0  0  0  0  0  0  0  0  0  0
    0.0000    0.0000    0.0000 C   0  0  0  0  0  0  0  0  0  0  0  0
    0.0000    0.0000    0.0000 C   0  0  0  0  0  0  0  0  0  0  0  0
    0.0000    0.0000    0.0000 C   0  0  0  0  0  0  0  0  0  0  0  0
    0.0000    0.0000    0.0000 C   0  0  0  0  0  0  0  0  0  0  0  0
    0.0000    0.0000    0.0000 O   0  0  0  0  0  0  0  0  0  0  0  0
    0.0000    0.0000    0.0000 C   0  0  0  0  0  0  0  0  0  0  0  0
    0.0000    0.0000    0.0000 O   0  0  0  0  0  0  0  0  0  0  0  0
    0.0000    0.0000    0.0000 N   0  0  0  0  0  0  0  0  0  0  0  0
    0.0000    0.0000    0.0000 C   0  0  0  0  0  0  0  0  0  0  0  0
    0.0000    0.0000    0.0000 O   0  0  0  0  0  0  0  0  0  0  0  0
  1  2  1  0  0  0  0
  2  3  1  0  0  0  0
  3  4  1  0  0  0  0
  4  5  2  0  0  0  0
  5  6  1  0  0  0  0
  6  7  2  0  0  0  0
  7  8  1  0  0  0  0
  8  9  2  0  0  0  0
  4  9  1  0  0  0  0
  7 10  1  0  0  0  0
  2 11  1  0  0  0  0
 11 12  2  0  0  0  0
 11 13  1  0  0  0  0
 13 14  1  0  0  0  0
  1 14  1  0  0  0  0
 14 15  2  0  0  0  0
M  END
> <InChI>
InChI=1S/C10H9NO3S/c12-7-3-1-6(2-4-7)5-8-9(13)11-10(14)15-8/h1-4,8,12H,5H2,(H,11,13,14)

> <InChIKey>
NKOHRVBBQISBSB-UHFFFAOYSA-N

> <SMILES>
S1C(CC2=CC=C(C=C2)O)C(=O)NC1=O

> <Synonyms>


> <PUBCHEM_CID>


> <Molecular_formula>
C10H9NO3S

> <Major_Isotope_Mass>
223.030314148

> <ALogP>
1.9247000000000007

> <Lipinski_Violations>
0

> <Insecticide_Likeness_Violations>
0

> <Post_Em_Herbicide_Likeness_Violations>
0

> <Metabolite_ID>
BTM00002

> <Reaction>
O-Dealkylation from CyProduct

> <Reaction_ID>
BTMR1331

> <Enzyme(s)>
CYP2C9
CYP2C19

> <Biosystem>
HUMAN

> <Precursor_ID>
TEST0030_rivoglitazone

> <Precursor_SMILES>
S1C(CC2=CC=C(OCC=3N(C4=C(N3)C=CC(OC)=C4)C)C=C2)C(=O)NC1=O

> <Precursor_InChI>
InChI=1S/C20H19N3O4S/c1-23-16-10-14(26-2)7-8-15(16)21-18(23)11-27-13-5-3-12(4-6-13)9-17-19(24)22-20(25)28-17/h3-8,10,17H,9,11H2,1-2H3,(H,22,24,25)

> <Precursor_InChIKey>
XMSXOLDPMGMWTH-UHFFFAOYSA-N

> <Precursor_ALogP>


> <Precursor_Major_Isotope_Mass>
397.1096

$$$$
BTM00003
  CDK     0807241707

 27 30  0  0  0  0  0  0  0  0999 V2000
    0.0000    0.0000    0.0000 S   0  0  0  0  0  0  0  0  0  0  0  0
    0.0000    0.0000    0.0000 C   0  0  0  0  0  0  0  0  0  0  0  0
    0.0000    0.0000    0.0000 C   0  0  0  0  0  0  0  0  0  0  0  0
    0.0000    0.0000    0.0000 C   0  0  0  0  0  0  0  0  0  0  0  0
    0.0000    0.0000    0.0000 C   0  0  0  0  0  0  0  0  0  0  0  0
    0.0000    0.0000    0.0000 C   0  0  0  0  0  0  0  0  0  0  0  0
    0.0000    0.0000    0.0000 C   0  0  0  0  0  0  0  0  0  0  0  0
    0.0000    0.0000    0.0000 O   0  0  0  0  0  0  0  0  0  0  0  0
    0.0000    0.0000    0.0000 C   0  0  0  0  0  0  0  0  0  0  0  0
    0.0000    0.0000    0.0000 C   0  0  0  0  0  0  0  0  0  0  0  0
    0.0000    0.0000    0.0000 N   0  0  0  0  0  0  0  0  0  0  0  0
    0.0000    0.0000    0.0000 C   0  0  0  0  0  0  0  0  0  0  0  0
    0.0000    0.0000    0.0000 C   0  0  0  0  0  0  0  0  0  0  0  0
    0.0000    0.0000    0.0000 C   0  0  0  0  0  0  0  0  0  0  0  0
    0.0000    0.0000    0.0000 C   0  0  0  0  0  0  0  0  0  0  0  0
    0.0000    0.0000    0.0000 C   0  0  0  0  0  0  0  0  0  0  0  0
    0.0000    0.0000    0.0000 C   0  0  0  0  0  0  0  0  0  0  0  0
    0.0000    0.0000    0.0000 O   0  0  0  0  0  0  0  0  0  0  0  0
    0.0000    0.0000    0.0000 C   0  0  0  0  0  0  0  0  0  0  0  0
    0.0000    0.0000    0.0000 N   0  0  0  0  0  0  0  0  0  0  0  0
    0.0000    0.0000    0.0000 C   0  0  0  0  0  0  0  0  0  0  0  0
    0.0000    0.0000    0.0000 C   0  0  0  0  0  0  0  0  0  0  0  0
    0.0000    0.0000    0.0000 C   0  0  0  0  0  0  0  0  0  0  0  0
    0.0000    0.0000    0.0000 O   0  0  0  0  0  0  0  0  0  0  0  0
    0.0000    0.0000    0.0000 N   0  0  0  0  0  0  0  0  0  0  0  0
    0.0000    0.0000    0.0000 C   0  0  0  0  0  0  0  0  0  0  0  0
    0.0000    0.0000    0.0000 O   0  0  0  0  0  0  0  0  0  0  0  0
  1  2  1  0  0  0  0
  2  3  1  0  0  0  0
  3  4  1  0  0  0  0
  4  5  2  0  0  0  0
  5  6  1  0  0  0  0
  6  7  2  0  0  0  0
  7  8  1  0  0  0  0
  8  9  1  0  0  0  0
  9 10  1  0  0  0  0
 10 11  2  0  0  0  0
 11 12  1  0  0  0  0
 12 13  2  0  0  0  0
 13 14  1  0  0  0  0
 14 15  2  0  0  0  0
 15 16  1  0  0  0  0
 16 17  2  0  0  0  0
 12 17  1  0  0  0  0
 15 18  1  0  0  0  0
 18 19  1  0  0  0  0
 13 20  1  0  0  0  0
 10 20  1  0  0  0  0
  7 21  1  0  0  0  0
 21 22  2  0  0  0  0
  4 22  1  0  0  0  0
  2 23  1  0  0  0  0
 23 24  2  0  0  0  0
 23 25  1  0  0  0  0
 25 26  1  0  0  0  0
  1 26  1  0  0  0  0
 26 27  2  0  0  0  0
M  END
> <InChI>
InChI=1S/C19H17N3O4S/c1-25-13-6-7-14-15(9-13)21-17(20-14)10-26-12-4-2-11(3-5-12)8-16-18(23)22-19(24)27-16/h2-7,9,16H,8,10H2,1H3,(H,20,21)(H,22,23,24)

> <InChIKey>
CUADXVBMFGPUEU-UHFFFAOYSA-N

> <SMILES>
S1C(CC2=CC=C(OCC3=NC4=C(C=C(C=C4)OC)N3)C=C2)C(=O)NC1=O

> <Synonyms>


> <PUBCHEM_CID>


> <Molecular_formula>
C19H17N3O4S

> <Major_Isotope_Mass>
383.0939770240001

> <ALogP>
3.665000000000002

> <Lipinski_Violations>
0

> <Insecticide_Likeness_Violations>
0

> <Post_Em_Herbicide_Likeness_Violations>
0

> <Metabolite_ID>
BTM00003

> <Reaction>
N-Dealkylation from CyProduct

> <Reaction_ID>
BTMR1332

> <Enzyme(s)>
CYP2C8
CYP2D6

> <Biosystem>
HUMAN

> <Precursor_ID>
TEST0030_rivoglitazone

> <Precursor_SMILES>
S1C(CC2=CC=C(OCC=3N(C4=C(N3)C=CC(OC)=C4)C)C=C2)C(=O)NC1=O

> <Precursor_InChI>
InChI=1S/C20H19N3O4S/c1-23-16-10-14(26-2)7-8-15(16)21-18(23)11-27-13-5-3-12(4-6-13)9-17-19(24)22-20(25)28-17/h3-8,10,17H,9,11H2,1-2H3,(H,22,24,25)

> <Precursor_InChIKey>
XMSXOLDPMGMWTH-UHFFFAOYSA-N

> <Precursor_ALogP>


> <Precursor_Major_Isotope_Mass>
397.1096

$$$$
BTM00004
  CDK     0807241707

 27 30  0  0  0  0  0  0  0  0999 V2000
    0.0000    0.0000    0.0000 S   0  0  0  0  0  0  0  0  0  0  0  0
    0.0000    0.0000    0.0000 C   0  0  0  0  0  0  0  0  0  0  0  0
    0.0000    0.0000    0.0000 C   0  0  0  0  0  0  0  0  0  0  0  0
    0.0000    0.0000    0.0000 C   0  0  0  0  0  0  0  0  0  0  0  0
    0.0000    0.0000    0.0000 C   0  0  0  0  0  0  0  0  0  0  0  0
    0.0000    0.0000    0.0000 C   0  0  0  0  0  0  0  0  0  0  0  0
    0.0000    0.0000    0.0000 C   0  0  0  0  0  0  0  0  0  0  0  0
    0.0000    0.0000    0.0000 O   0  0  0  0  0  0  0  0  0  0  0  0
    0.0000    0.0000    0.0000 C   0  0  0  0  0  0  0  0  0  0  0  0
    0.0000    0.0000    0.0000 C   0  0  0  0  0  0  0  0  0  0  0  0
    0.0000    0.0000    0.0000 N   0  0  0  0  0  0  0  0  0  0  0  0
    0.0000    0.0000    0.0000 C   0  0  0  0  0  0  0  0  0  0  0  0
    0.0000    0.0000    0.0000 C   0  0  0  0  0  0  0  0  0  0  0  0
    0.0000    0.0000    0.0000 N   0  0  0  0  0  0  0  0  0  0  0  0
    0.0000    0.0000    0.0000 C   0  0  0  0  0  0  0  0  0  0  0  0
    0.0000    0.0000    0.0000 C   0  0  0  0  0  0  0  0  0  0  0  0
    0.0000    0.0000    0.0000 C   0  0  0  0  0  0  0  0  0  0  0  0
    0.0000    0.0000    0.0000 C   0  0  0  0  0  0  0  0  0  0  0  0
    0.0000    0.0000    0.0000 O   0  0  0  0  0  0  0  0  0  0  0  0
    0.0000    0.0000    0.0000 C   0  0  0  0  0  0  0  0  0  0  0  0
    0.0000    0.0000    0.0000 C   0  0  0  0  0  0  0  0  0  0  0  0
    0.0000    0.0000    0.0000 C   0  0  0  0  0  0  0  0  0  0  0  0
    0.0000    0.0000    0.0000 C   0  0  0  0  0  0  0  0  0  0  0  0
    0.0000    0.0000    0.0000 O   0  0  0  0  0  0  0  0  0  0  0  0
    0.0000    0.0000    0.0000 N   0  0  0  0  0  0  0  0  0  0  0  0
    0.0000    0.0000    0.0000 C   0  0  0  0  0  0  0  0  0  0  0  0
    0.0000    0.0000    0.0000 O   0  0  0  0  0  0  0  0  0  0  0  0
  1  2  1  0  0  0  0
  2  3  1  0  0  0  0
  3  4  1  0  0  0  0
  4  5  2  0  0  0  0
  5  6  1  0  0  0  0
  6  7  2  0  0  0  0
  7  8  1  0  0  0  0
  8  9  1  0  0  0  0
  9 10  1  0  0  0  0
 10 11  1  0  0  0  0
 11 12  1  0  0  0  0
 12 13  2  0  0  0  0
 13 14  1  0  0  0  0
 10 14  2  0  0  0  0
 13 15  1  0  0  0  0
 15 16  2  0  0  0  0
 16 17  1  0  0  0  0
 17 18  2  0  0  0  0
 12 18  1  0  0  0  0
 17 19  1  0  0  0  0
 11 20  1  0  0  0  0
  7 21  1  0  0  0  0
 21 22  2  0  0  0  0
  4 22  1  0  0  0  0
  2 23  1  0  0  0  0
 23 24  2  0  0  0  0
 23 25  1  0  0  0  0
 25 26  1  0  0  0  0
  1 26  1  0  0  0  0
 26 27  2  0  0  0  0
M  END
> <InChI>
InChI=1S/C19H17N3O4S/c1-22-15-9-12(23)4-7-14(15)20-17(22)10-26-13-5-2-11(3-6-13)8-16-18(24)21-19(25)27-16/h2-7,9,16,23H,8,10H2,1H3,(H,21,24,25)

> <InChIKey>
OIEQYSVXVNGAOF-UHFFFAOYSA-N

> <SMILES>
S1C(CC2=CC=C(OCC=3N(C4=C(N3)C=CC(=C4)O)C)C=C2)C(=O)NC1=O

> <Synonyms>


> <PUBCHEM_CID>


> <Molecular_formula>
C19H17N3O4S

> <Major_Isotope_Mass>
383.09397702399997

> <ALogP>
3.619900000000002

> <Lipinski_Violations>
0

> <Insecticide_Likeness_Violations>
0

> <Post_Em_Herbicide_Likeness_Violations>
0

> <Metabolite_ID>
BTM00004

> <Reaction>
O-Dealkylation from CyProduct

> <Reaction_ID>
BTMR1331

> <Enzyme(s)>
CYP1A2
CYP2C8
CYP2C9
CYP2C19
CYP2D6
CYP3A4

> <Biosystem>
HUMAN

> <Precursor_ID>
TEST0030_rivoglitazone

> <Precursor_SMILES>
S1C(CC2=CC=C(OCC=3N(C4=C(N3)C=CC(OC)=C4)C)C=C2)C(=O)NC1=O

> <Precursor_InChI>
InChI=1S/C20H19N3O4S/c1-23-16-10-14(26-2)7-8-15(16)21-18(23)11-27-13-5-3-12(4-6-13)9-17-19(24)22-20(25)28-17/h3-8,10,17H,9,11H2,1-2H3,(H,22,24,25)

> <Precursor_InChIKey>
XMSXOLDPMGMWTH-UHFFFAOYSA-N

> <Precursor_ALogP>


> <Precursor_Major_Isotope_Mass>
397.1096

$$$$
BTM00005
  CDK     0807241707

  2  1  0  0  0  0  0  0  0  0999 V2000
    0.0000    0.0000    0.0000 O   0  0  0  0  0  0  0  0  0  0  0  0
    0.0000    0.0000    0.0000 C   0  0  0  0  0  0  0  0  0  0  0  0
  1  2  2  0  0  0  0
M  END
> <InChI>
InChI=1S/CH2O/c1-2/h1H2

> <InChIKey>
WSFSSNUMVMOOMR-UHFFFAOYSA-N

> <SMILES>
O=C

> <Synonyms>


> <PUBCHEM_CID>


> <Molecular_formula>
CH2O

> <Major_Isotope_Mass>
30.010564684

> <ALogP>
-0.8841

> <Lipinski_Violations>
0

> <Insecticide_Likeness_Violations>
0

> <Post_Em_Herbicide_Likeness_Violations>
0

> <Metabolite_ID>
BTM00005

> <Reaction>
O-Dealkylation from CyProduct

> <Reaction_ID>
BTMR1331

> <Enzyme(s)>
CYP1A2
CYP2C8
CYP2C9
CYP2C19
CYP2D6
CYP3A4

> <Biosystem>
HUMAN

> <Precursor_ID>
TEST0030_rivoglitazone

> <Precursor_SMILES>
S1C(CC2=CC=C(OCC=3N(C4=C(N3)C=CC(OC)=C4)C)C=C2)C(=O)NC1=O

> <Precursor_InChI>
InChI=1S/C20H19N3O4S/c1-23-16-10-14(26-2)7-8-15(16)21-18(23)11-27-13-5-3-12(4-6-13)9-17-19(24)22-20(25)28-17/h3-8,10,17H,9,11H2,1-2H3,(H,22,24,25)

> <Precursor_InChIKey>
XMSXOLDPMGMWTH-UHFFFAOYSA-N

> <Precursor_ALogP>


> <Precursor_Major_Isotope_Mass>
397.1096

$$$$
