BTM00001
  CDK     0807241711

 30 32  0  0  0  0  0  0  0  0999 V2000
    0.0000    0.0000    0.0000 O   0  0  0  0  0  0  0  0  0  0  0  0
    0.0000    0.0000    0.0000 C   0  0  0  0  0  0  0  0  0  0  0  0
    0.0000    0.0000    0.0000 N   0  0  0  0  0  0  0  0  0  0  0  0
    0.0000    0.0000    0.0000 C   0  0  0  0  0  0  0  0  0  0  0  0
    0.0000    0.0000    0.0000 C   0  0  0  0  0  0  0  0  0  0  0  0
    0.0000    0.0000    0.0000 C   0  0  0  0  0  0  0  0  0  0  0  0
    0.0000    0.0000    0.0000 C   0  0  0  0  0  0  0  0  0  0  0  0
    0.0000    0.0000    0.0000 C   0  0  0  0  0  0  0  0  0  0  0  0
    0.0000    0.0000    0.0000 C   0  0  0  0  0  0  0  0  0  0  0  0
    0.0000    0.0000    0.0000 C   0  0  0  0  0  0  0  0  0  0  0  0
    0.0000    0.0000    0.0000 C   0  0  0  0  0  0  0  0  0  0  0  0
    0.0000    0.0000    0.0000 C   0  0  0  0  0  0  0  0  0  0  0  0
    0.0000    0.0000    0.0000 C   0  0  0  0  0  0  0  0  0  0  0  0
    0.0000    0.0000    0.0000 C   0  0  0  0  0  0  0  0  0  0  0  0
    0.0000    0.0000    0.0000 C   0  0  0  0  0  0  0  0  0  0  0  0
    0.0000    0.0000    0.0000 C   0  0  0  0  0  0  0  0  0  0  0  0
    0.0000    0.0000    0.0000 N   0  0  0  0  0  0  0  0  0  0  0  0
    0.0000    0.0000    0.0000 C   0  0  0  0  0  0  0  0  0  0  0  0
    0.0000    0.0000    0.0000 O   0  0  0  0  0  0  0  0  0  0  0  0
    0.0000    0.0000    0.0000 C   0  0  0  0  0  0  0  0  0  0  0  0
    0.0000    0.0000    0.0000 C   0  0  0  0  0  0  0  0  0  0  0  0
    0.0000    0.0000    0.0000 O   0  0  0  0  0  0  0  0  0  0  0  0
    0.0000    0.0000    0.0000 C   0  0  0  0  0  0  0  0  0  0  0  0
    0.0000    0.0000    0.0000 C   0  0  0  0  0  0  0  0  0  0  0  0
    0.0000    0.0000    0.0000 N   0  0  0  0  0  0  0  0  0  0  0  0
    0.0000    0.0000    0.0000 C   0  0  0  0  0  0  0  0  0  0  0  0
    0.0000    0.0000    0.0000 C   0  0  0  0  0  0  0  0  0  0  0  0
    0.0000    0.0000    0.0000 C   0  0  0  0  0  0  0  0  0  0  0  0
    0.0000    0.0000    0.0000 C   0  0  0  0  0  0  0  0  0  0  0  0
    0.0000    0.0000    0.0000 O   0  0  0  0  0  0  0  0  0  0  0  0
  1  2  2  0  0  0  0
  2  3  1  0  0  0  0
  3  4  1  0  0  0  0
  4  5  2  0  0  0  0
  5  6  1  0  0  0  0
  6  7  1  0  0  0  0
  7  8  1  0  0  0  0
  8  9  2  0  0  0  0
  3  9  1  0  0  0  0
  9 10  1  0  0  0  0
 10 11  2  0  0  0  0
 11 12  1  0  0  0  0
 12 13  2  0  0  0  0
  8 13  1  0  0  0  0
  5 14  1  0  0  0  0
 14 15  2  0  0  0  0
 15 16  1  0  0  0  0
 16 17  1  0  0  0  0
 17 18  1  0  0  0  0
 18 19  1  0  0  0  0
 19 20  1  0  0  0  0
 20 21  1  0  0  0  0
 18 22  2  0  0  0  0
 16 23  2  0  0  0  0
  4 23  1  0  0  0  0
  2 24  1  0  0  0  0
 24 25  1  0  0  0  0
 25 26  1  0  0  0  0
 26 27  1  0  0  0  0
 25 28  1  0  0  0  0
 28 29  1  0  0  0  0
 24 30  1  0  0  0  0
M  END
> <InChI>
InChI=1S/C23H29N3O4/c1-4-25(5-2)21(27)22(28)26-19-10-8-7-9-16(19)11-12-17-13-14-18(15-20(17)26)24-23(29)30-6-3/h7-10,13-15,21,27H,4-6,11-12H2,1-3H3,(H,24,29)

> <InChIKey>
RSHWOSLFZJPVFC-UHFFFAOYSA-N

> <SMILES>
O=C(N1C2=C(CCC3=C1C=CC=C3)C=CC(NC(OCC)=O)=C2)C(N(CC)CC)O

> <Synonyms>


> <PUBCHEM_CID>


> <Molecular_formula>
C23H29N3O4

> <Major_Isotope_Mass>
411.215806408

> <ALogP>
4.023500000000001

> <Lipinski_Violations>
0

> <Insecticide_Likeness_Violations>
0

> <Post_Em_Herbicide_Likeness_Violations>
0

> <Metabolite_ID>
BTM00001

> <Reaction>
Hydroxylation from CyProduct

> <Reaction_ID>
BTMR1328

> <Enzyme(s)>
CYP3A4

> <Biosystem>
HUMAN

> <Precursor_ID>
TEST0060_Cinpa1

> <Precursor_SMILES>
O=C(N1C2=C(CCC3=C1C=CC=C3)C=CC(NC(OCC)=O)=C2)CN(CC)CC

> <Precursor_InChI>
InChI=1S/C23H29N3O3/c1-4-25(5-2)16-22(27)26-20-10-8-7-9-17(20)11-12-18-13-14-19(15-21(18)26)24-23(28)29-6-3/h7-10,13-15H,4-6,11-12,16H2,1-3H3,(H,24,28)

> <Precursor_InChIKey>
AYQBYSPEGRYKFA-UHFFFAOYSA-N

> <Precursor_ALogP>


> <Precursor_Major_Isotope_Mass>
395.2208

$$$$
BTM00002
  CDK     0807241711

 27 29  0  0  0  0  0  0  0  0999 V2000
    0.0000    0.0000    0.0000 O   0  0  0  0  0  0  0  0  0  0  0  0
    0.0000    0.0000    0.0000 C   0  0  0  0  0  0  0  0  0  0  0  0
    0.0000    0.0000    0.0000 N   0  0  0  0  0  0  0  0  0  0  0  0
    0.0000    0.0000    0.0000 C   0  0  0  0  0  0  0  0  0  0  0  0
    0.0000    0.0000    0.0000 C   0  0  0  0  0  0  0  0  0  0  0  0
    0.0000    0.0000    0.0000 C   0  0  0  0  0  0  0  0  0  0  0  0
    0.0000    0.0000    0.0000 C   0  0  0  0  0  0  0  0  0  0  0  0
    0.0000    0.0000    0.0000 C   0  0  0  0  0  0  0  0  0  0  0  0
    0.0000    0.0000    0.0000 C   0  0  0  0  0  0  0  0  0  0  0  0
    0.0000    0.0000    0.0000 C   0  0  0  0  0  0  0  0  0  0  0  0
    0.0000    0.0000    0.0000 C   0  0  0  0  0  0  0  0  0  0  0  0
    0.0000    0.0000    0.0000 C   0  0  0  0  0  0  0  0  0  0  0  0
    0.0000    0.0000    0.0000 C   0  0  0  0  0  0  0  0  0  0  0  0
    0.0000    0.0000    0.0000 C   0  0  0  0  0  0  0  0  0  0  0  0
    0.0000    0.0000    0.0000 C   0  0  0  0  0  0  0  0  0  0  0  0
    0.0000    0.0000    0.0000 C   0  0  0  0  0  0  0  0  0  0  0  0
    0.0000    0.0000    0.0000 N   0  0  0  0  0  0  0  0  0  0  0  0
    0.0000    0.0000    0.0000 C   0  0  0  0  0  0  0  0  0  0  0  0
    0.0000    0.0000    0.0000 O   0  0  0  0  0  0  0  0  0  0  0  0
    0.0000    0.0000    0.0000 C   0  0  0  0  0  0  0  0  0  0  0  0
    0.0000    0.0000    0.0000 C   0  0  0  0  0  0  0  0  0  0  0  0
    0.0000    0.0000    0.0000 O   0  0  0  0  0  0  0  0  0  0  0  0
    0.0000    0.0000    0.0000 C   0  0  0  0  0  0  0  0  0  0  0  0
    0.0000    0.0000    0.0000 C   0  0  0  0  0  0  0  0  0  0  0  0
    0.0000    0.0000    0.0000 N   0  0  0  0  0  0  0  0  0  0  0  0
    0.0000    0.0000    0.0000 C   0  0  0  0  0  0  0  0  0  0  0  0
    0.0000    0.0000    0.0000 C   0  0  0  0  0  0  0  0  0  0  0  0
  1  2  2  0  0  0  0
  2  3  1  0  0  0  0
  3  4  1  0  0  0  0
  4  5  2  0  0  0  0
  5  6  1  0  0  0  0
  6  7  1  0  0  0  0
  7  8  1  0  0  0  0
  8  9  2  0  0  0  0
  3  9  1  0  0  0  0
  9 10  1  0  0  0  0
 10 11  2  0  0  0  0
 11 12  1  0  0  0  0
 12 13  2  0  0  0  0
  8 13  1  0  0  0  0
  5 14  1  0  0  0  0
 14 15  2  0  0  0  0
 15 16  1  0  0  0  0
 16 17  1  0  0  0  0
 17 18  1  0  0  0  0
 18 19  1  0  0  0  0
 19 20  1  0  0  0  0
 20 21  1  0  0  0  0
 18 22  2  0  0  0  0
 16 23  2  0  0  0  0
  4 23  1  0  0  0  0
  2 24  1  0  0  0  0
 24 25  1  0  0  0  0
 25 26  1  0  0  0  0
 26 27  1  0  0  0  0
M  END
> <InChI>
InChI=1S/C21H25N3O3/c1-3-22-14-20(25)24-18-8-6-5-7-15(18)9-10-16-11-12-17(13-19(16)24)23-21(26)27-4-2/h5-8,11-13,22H,3-4,9-10,14H2,1-2H3,(H,23,26)

> <InChIKey>
BHVLAOZBEMMGPS-UHFFFAOYSA-N

> <SMILES>
O=C(N1C2=C(CCC3=C1C=CC=C3)C=CC(NC(OCC)=O)=C2)CNCC

> <Synonyms>


> <PUBCHEM_CID>


> <Molecular_formula>
C21H25N3O3

> <Major_Isotope_Mass>
367.18959166

> <ALogP>
3.478500000000003

> <Lipinski_Violations>
0

> <Insecticide_Likeness_Violations>
0

> <Post_Em_Herbicide_Likeness_Violations>
0

> <Metabolite_ID>
BTM00002

> <Reaction>
N-Dealkylation from CyProduct

> <Reaction_ID>
BTMR1332

> <Enzyme(s)>
CYP1A2
CYP2B6
CYP2C8
CYP2C9
CYP2C19
CYP2D6
CYP3A4

> <Biosystem>
HUMAN

> <Precursor_ID>
TEST0060_Cinpa1

> <Precursor_SMILES>
O=C(N1C2=C(CCC3=C1C=CC=C3)C=CC(NC(OCC)=O)=C2)CN(CC)CC

> <Precursor_InChI>
InChI=1S/C23H29N3O3/c1-4-25(5-2)16-22(27)26-20-10-8-7-9-17(20)11-12-18-13-14-19(15-21(18)26)24-23(28)29-6-3/h7-10,13-15H,4-6,11-12,16H2,1-3H3,(H,24,28)

> <Precursor_InChIKey>
AYQBYSPEGRYKFA-UHFFFAOYSA-N

> <Precursor_ALogP>


> <Precursor_Major_Isotope_Mass>
395.2208

$$$$
BTM00003
  CDK     0807241711

  3  2  0  0  0  0  0  0  0  0999 V2000
    0.0000    0.0000    0.0000 C   0  0  0  0  0  0  0  0  0  0  0  0
    0.0000    0.0000    0.0000 C   0  0  0  0  0  0  0  0  0  0  0  0
    0.0000    0.0000    0.0000 O   0  0  0  0  0  0  0  0  0  0  0  0
  1  2  1  0  0  0  0
  2  3  2  0  0  0  0
M  END
> <InChI>
InChI=1S/C2H4O/c1-2-3/h2H,1H3

> <InChIKey>
IKHGUXGNUITLKF-UHFFFAOYSA-N

> <SMILES>
CC=O

> <Synonyms>


> <PUBCHEM_CID>


> <Molecular_formula>
C2H4O

> <Major_Isotope_Mass>
44.026214748

> <ALogP>
-0.1825

> <Lipinski_Violations>
0

> <Insecticide_Likeness_Violations>
0

> <Post_Em_Herbicide_Likeness_Violations>
0

> <Metabolite_ID>
BTM00003

> <Reaction>
N-Dealkylation from CyProduct

> <Reaction_ID>
BTMR1332

> <Enzyme(s)>
CYP1A2
CYP2B6
CYP2C8
CYP2C9
CYP2C19
CYP2D6
CYP3A4

> <Biosystem>
HUMAN

> <Precursor_ID>
TEST0060_Cinpa1

> <Precursor_SMILES>
O=C(N1C2=C(CCC3=C1C=CC=C3)C=CC(NC(OCC)=O)=C2)CN(CC)CC

> <Precursor_InChI>
InChI=1S/C23H29N3O3/c1-4-25(5-2)16-22(27)26-20-10-8-7-9-17(20)11-12-18-13-14-19(15-21(18)26)24-23(28)29-6-3/h7-10,13-15H,4-6,11-12,16H2,1-3H3,(H,24,28)

> <Precursor_InChIKey>
AYQBYSPEGRYKFA-UHFFFAOYSA-N

> <Precursor_ALogP>


> <Precursor_Major_Isotope_Mass>
395.2208

$$$$
