BTM00001
  CDK     0807241715

 18 20  0  0  0  0  0  0  0  0999 V2000
    0.0000    0.0000    0.0000 C   0  0  0  0  0  0  0  0  0  0  0  0
    0.0000    0.0000    0.0000 C   0  0  0  0  0  0  0  0  0  0  0  0
    0.0000    0.0000    0.0000 C   0  0  0  0  0  0  0  0  0  0  0  0
    0.0000    0.0000    0.0000 C   0  0  0  0  0  0  0  0  0  0  0  0
    0.0000    0.0000    0.0000 N   0  0  0  0  0  0  0  0  0  0  0  0
    0.0000    0.0000    0.0000 C   0  0  0  0  0  0  0  0  0  0  0  0
    0.0000    0.0000    0.0000 C   0  0  0  0  0  0  0  0  0  0  0  0
    0.0000    0.0000    0.0000 C   0  0  0  0  0  0  0  0  0  0  0  0
    0.0000    0.0000    0.0000 C   0  0  0  0  0  0  0  0  0  0  0  0
    0.0000    0.0000    0.0000 C   0  0  0  0  0  0  0  0  0  0  0  0
    0.0000    0.0000    0.0000 C   0  0  0  0  0  0  0  0  0  0  0  0
    0.0000    0.0000    0.0000 N   0  0  0  0  0  0  0  0  0  0  0  0
    0.0000    0.0000    0.0000 C   0  0  0  0  0  0  0  0  0  0  0  0
    0.0000    0.0000    0.0000 N   0  0  0  0  0  0  0  0  0  0  0  0
    0.0000    0.0000    0.0000 N   0  0  0  0  0  0  0  0  0  0  0  0
    0.0000    0.0000    0.0000 C   0  0  0  0  0  0  0  0  0  0  0  0
    0.0000    0.0000    0.0000 C   0  0  0  0  0  0  0  0  0  0  0  0
    0.0000    0.0000    0.0000 O   0  0  0  0  0  0  0  0  0  0  0  0
  1  2  1  0  0  0  0
  2  3  1  0  0  0  0
  3  4  2  0  0  0  0
  4  5  1  0  0  0  0
  5  6  1  0  0  0  0
  6  7  2  0  0  0  0
  7  8  1  0  0  0  0
  8  9  2  0  0  0  0
  9 10  1  0  0  0  0
 10 11  2  0  0  0  0
  3 11  1  0  0  0  0
  6 11  1  0  0  0  0
  9 12  1  0  0  0  0
 12 13  1  0  0  0  0
 13 14  2  0  0  0  0
 14 15  1  0  0  0  0
 15 16  2  0  0  0  0
 12 16  1  0  0  0  0
  1 17  1  0  0  0  0
 17 18  2  0  0  0  0
M  END
> <InChI>
InChI=1S/C13H12N4O/c18-5-1-2-10-7-14-13-4-3-11(6-12(10)13)17-8-15-16-9-17/h3-9,14H,1-2H2

> <InChIKey>
XUPXFCPWAPSAIF-UHFFFAOYSA-N

> <SMILES>
C(CC1=CNC2=CC=C(C=C12)N3C=NN=C3)C=O

> <Synonyms>


> <PUBCHEM_CID>


> <Molecular_formula>
C13H12N4O

> <Major_Isotope_Mass>
240.101111004

> <ALogP>
1.4126999999999998

> <Lipinski_Violations>
0

> <Insecticide_Likeness_Violations>
0

> <Post_Em_Herbicide_Likeness_Violations>
0

> <Metabolite_ID>
BTM00001

> <Reaction>
N-Dealkylation from CyProduct

> <Reaction_ID>
BTMR1332

> <Enzyme(s)>
CYP1A2

> <Biosystem>
HUMAN

> <Precursor_ID>
TEST0087_L-775606

> <Precursor_SMILES>
FC1=CC=CC(CCN2CCN(CCCC3=CNC4=CC=C(C=C34)N5C=NN=C5)CC2)=C1

> <Precursor_InChI>
InChI=1S/C25H29FN6/c26-22-5-1-3-20(15-22)8-10-31-13-11-30(12-14-31)9-2-4-21-17-27-25-7-6-23(16-24(21)25)32-18-28-29-19-32/h1,3,5-7,15-19,27H,2,4,8-14H2

> <Precursor_InChIKey>
ZUTQCPBDRJBADG-UHFFFAOYSA-N

> <Precursor_ALogP>


> <Precursor_Major_Isotope_Mass>
432.2437

$$$$
BTM00002
  CDK     0807241715

 15 16  0  0  0  0  0  0  0  0999 V2000
    0.0000    0.0000    0.0000 F   0  0  0  0  0  0  0  0  0  0  0  0
    0.0000    0.0000    0.0000 C   0  0  0  0  0  0  0  0  0  0  0  0
    0.0000    0.0000    0.0000 C   0  0  0  0  0  0  0  0  0  0  0  0
    0.0000    0.0000    0.0000 C   0  0  0  0  0  0  0  0  0  0  0  0
    0.0000    0.0000    0.0000 C   0  0  0  0  0  0  0  0  0  0  0  0
    0.0000    0.0000    0.0000 C   0  0  0  0  0  0  0  0  0  0  0  0
    0.0000    0.0000    0.0000 C   0  0  0  0  0  0  0  0  0  0  0  0
    0.0000    0.0000    0.0000 C   0  0  0  0  0  0  0  0  0  0  0  0
    0.0000    0.0000    0.0000 N   0  0  0  0  0  0  0  0  0  0  0  0
    0.0000    0.0000    0.0000 C   0  0  0  0  0  0  0  0  0  0  0  0
    0.0000    0.0000    0.0000 C   0  0  0  0  0  0  0  0  0  0  0  0
    0.0000    0.0000    0.0000 N   0  0  0  0  0  0  0  0  0  0  0  0
    0.0000    0.0000    0.0000 C   0  0  0  0  0  0  0  0  0  0  0  0
    0.0000    0.0000    0.0000 C   0  0  0  0  0  0  0  0  0  0  0  0
    0.0000    0.0000    0.0000 C   0  0  0  0  0  0  0  0  0  0  0  0
  1  2  1  0  0  0  0
  2  3  2  0  0  0  0
  3  4  1  0  0  0  0
  4  5  2  0  0  0  0
  5  6  1  0  0  0  0
  6  7  1  0  0  0  0
  7  8  1  0  0  0  0
  8  9  1  0  0  0  0
  9 10  1  0  0  0  0
 10 11  1  0  0  0  0
 11 12  1  0  0  0  0
 12 13  1  0  0  0  0
 13 14  1  0  0  0  0
  9 14  1  0  0  0  0
  6 15  2  0  0  0  0
  2 15  1  0  0  0  0
M  END
> <InChI>
InChI=1S/C12H17FN2/c13-12-3-1-2-11(10-12)4-7-15-8-5-14-6-9-15/h1-3,10,14H,4-9H2

> <InChIKey>
GSSODEWYFSLYLJ-UHFFFAOYSA-N

> <SMILES>
FC1=CC=CC(CCN2CCNCC2)=C1

> <Synonyms>


> <PUBCHEM_CID>


> <Molecular_formula>
C12H17FN2

> <Major_Isotope_Mass>
208.13757676400002

> <ALogP>
1.8517000000000026

> <Lipinski_Violations>
0

> <Insecticide_Likeness_Violations>
0

> <Post_Em_Herbicide_Likeness_Violations>
0

> <Metabolite_ID>
BTM00002

> <Reaction>
N-Dealkylation from CyProduct

> <Reaction_ID>
BTMR1332

> <Enzyme(s)>
CYP1A2

> <Biosystem>
HUMAN

> <Precursor_ID>
TEST0087_L-775606

> <Precursor_SMILES>
FC1=CC=CC(CCN2CCN(CCCC3=CNC4=CC=C(C=C34)N5C=NN=C5)CC2)=C1

> <Precursor_InChI>
InChI=1S/C25H29FN6/c26-22-5-1-3-20(15-22)8-10-31-13-11-30(12-14-31)9-2-4-21-17-27-25-7-6-23(16-24(21)25)32-18-28-29-19-32/h1,3,5-7,15-19,27H,2,4,8-14H2

> <Precursor_InChIKey>
ZUTQCPBDRJBADG-UHFFFAOYSA-N

> <Precursor_ALogP>


> <Precursor_Major_Isotope_Mass>
432.2437

$$$$
BTM00003
  CDK     0807241715

 23 26  0  0  0  0  0  0  0  0999 V2000
    0.0000    0.0000    0.0000 C   0  0  0  0  0  0  0  0  0  0  0  0
    0.0000    0.0000    0.0000 C   0  0  0  0  0  0  0  0  0  0  0  0
    0.0000    0.0000    0.0000 N   0  0  0  0  0  0  0  0  0  0  0  0
    0.0000    0.0000    0.0000 C   0  0  0  0  0  0  0  0  0  0  0  0
    0.0000    0.0000    0.0000 C   0  0  0  0  0  0  0  0  0  0  0  0
    0.0000    0.0000    0.0000 C   0  0  0  0  0  0  0  0  0  0  0  0
    0.0000    0.0000    0.0000 C   0  0  0  0  0  0  0  0  0  0  0  0
    0.0000    0.0000    0.0000 C   0  0  0  0  0  0  0  0  0  0  0  0
    0.0000    0.0000    0.0000 N   0  0  0  0  0  0  0  0  0  0  0  0
    0.0000    0.0000    0.0000 C   0  0  0  0  0  0  0  0  0  0  0  0
    0.0000    0.0000    0.0000 C   0  0  0  0  0  0  0  0  0  0  0  0
    0.0000    0.0000    0.0000 C   0  0  0  0  0  0  0  0  0  0  0  0
    0.0000    0.0000    0.0000 C   0  0  0  0  0  0  0  0  0  0  0  0
    0.0000    0.0000    0.0000 C   0  0  0  0  0  0  0  0  0  0  0  0
    0.0000    0.0000    0.0000 C   0  0  0  0  0  0  0  0  0  0  0  0
    0.0000    0.0000    0.0000 N   0  0  0  0  0  0  0  0  0  0  0  0
    0.0000    0.0000    0.0000 C   0  0  0  0  0  0  0  0  0  0  0  0
    0.0000    0.0000    0.0000 N   0  0  0  0  0  0  0  0  0  0  0  0
    0.0000    0.0000    0.0000 N   0  0  0  0  0  0  0  0  0  0  0  0
    0.0000    0.0000    0.0000 C   0  0  0  0  0  0  0  0  0  0  0  0
    0.0000    0.0000    0.0000 C   0  0  0  0  0  0  0  0  0  0  0  0
    0.0000    0.0000    0.0000 C   0  0  0  0  0  0  0  0  0  0  0  0
    0.0000    0.0000    0.0000 N   0  0  0  0  0  0  0  0  0  0  0  0
  1  2  1  0  0  0  0
  2  3  1  0  0  0  0
  3  4  1  0  0  0  0
  4  5  1  0  0  0  0
  5  6  1  0  0  0  0
  6  7  1  0  0  0  0
  7  8  2  0  0  0  0
  8  9  1  0  0  0  0
  9 10  1  0  0  0  0
 10 11  2  0  0  0  0
 11 12  1  0  0  0  0
 12 13  2  0  0  0  0
 13 14  1  0  0  0  0
 14 15  2  0  0  0  0
  7 15  1  0  0  0  0
 10 15  1  0  0  0  0
 13 16  1  0  0  0  0
 16 17  1  0  0  0  0
 17 18  2  0  0  0  0
 18 19  1  0  0  0  0
 19 20  2  0  0  0  0
 16 20  1  0  0  0  0
  3 21  1  0  0  0  0
 21 22  1  0  0  0  0
 22 23  1  0  0  0  0
  1 23  1  0  0  0  0
M  END
> <InChI>
InChI=1S/C17H22N6/c1(7-22-8-5-18-6-9-22)2-14-11-19-17-4-3-15(10-16(14)17)23-12-20-21-13-23/h3-4,10-13,18-19H,1-2,5-9H2

> <InChIKey>
OOQZMTKUJVKASW-UHFFFAOYSA-N

> <SMILES>
C1CN(CCCC2=CNC3=CC=C(C=C23)N4C=NN=C4)CCN1

> <Synonyms>


> <PUBCHEM_CID>


> <Molecular_formula>
C17H22N6

> <Major_Isotope_Mass>
310.190594704

> <ALogP>
1.5423000000000018

> <Lipinski_Violations>
0

> <Insecticide_Likeness_Violations>
0

> <Post_Em_Herbicide_Likeness_Violations>
0

> <Metabolite_ID>
BTM00003

> <Reaction>
N-Dealkylation from CyProduct

> <Reaction_ID>
BTMR1332

> <Enzyme(s)>
CYP2C8
CYP3A4

> <Biosystem>
HUMAN

> <Precursor_ID>
TEST0087_L-775606

> <Precursor_SMILES>
FC1=CC=CC(CCN2CCN(CCCC3=CNC4=CC=C(C=C34)N5C=NN=C5)CC2)=C1

> <Precursor_InChI>
InChI=1S/C25H29FN6/c26-22-5-1-3-20(15-22)8-10-31-13-11-30(12-14-31)9-2-4-21-17-27-25-7-6-23(16-24(21)25)32-18-28-29-19-32/h1,3,5-7,15-19,27H,2,4,8-14H2

> <Precursor_InChIKey>
ZUTQCPBDRJBADG-UHFFFAOYSA-N

> <Precursor_ALogP>


> <Precursor_Major_Isotope_Mass>
432.2437

$$$$
BTM00004
  CDK     0807241715

 10 10  0  0  0  0  0  0  0  0999 V2000
    0.0000    0.0000    0.0000 F   0  0  0  0  0  0  0  0  0  0  0  0
    0.0000    0.0000    0.0000 C   0  0  0  0  0  0  0  0  0  0  0  0
    0.0000    0.0000    0.0000 C   0  0  0  0  0  0  0  0  0  0  0  0
    0.0000    0.0000    0.0000 C   0  0  0  0  0  0  0  0  0  0  0  0
    0.0000    0.0000    0.0000 C   0  0  0  0  0  0  0  0  0  0  0  0
    0.0000    0.0000    0.0000 C   0  0  0  0  0  0  0  0  0  0  0  0
    0.0000    0.0000    0.0000 C   0  0  0  0  0  0  0  0  0  0  0  0
    0.0000    0.0000    0.0000 C   0  0  0  0  0  0  0  0  0  0  0  0
    0.0000    0.0000    0.0000 O   0  0  0  0  0  0  0  0  0  0  0  0
    0.0000    0.0000    0.0000 C   0  0  0  0  0  0  0  0  0  0  0  0
  1  2  1  0  0  0  0
  2  3  2  0  0  0  0
  3  4  1  0  0  0  0
  4  5  2  0  0  0  0
  5  6  1  0  0  0  0
  6  7  1  0  0  0  0
  7  8  1  0  0  0  0
  8  9  2  0  0  0  0
  6 10  2  0  0  0  0
  2 10  1  0  0  0  0
M  END
> <InChI>
InChI=1S/C8H7FO/c9-8-3-1-2-7(6-8)4-5-10/h1-3,5-6H,4H2

> <InChIKey>
KWRVVGCOELJXPN-UHFFFAOYSA-N

> <SMILES>
FC1=CC=CC(CC=O)=C1

> <Synonyms>


> <PUBCHEM_CID>


> <Molecular_formula>
C8H7FO

> <Major_Isotope_Mass>
138.048093064

> <ALogP>
1.7220999999999997

> <Lipinski_Violations>
0

> <Insecticide_Likeness_Violations>
0

> <Post_Em_Herbicide_Likeness_Violations>
0

> <Metabolite_ID>
BTM00004

> <Reaction>
N-Dealkylation from CyProduct

> <Reaction_ID>
BTMR1332

> <Enzyme(s)>
CYP2C8
CYP3A4

> <Biosystem>
HUMAN

> <Precursor_ID>
TEST0087_L-775606

> <Precursor_SMILES>
FC1=CC=CC(CCN2CCN(CCCC3=CNC4=CC=C(C=C34)N5C=NN=C5)CC2)=C1

> <Precursor_InChI>
InChI=1S/C25H29FN6/c26-22-5-1-3-20(15-22)8-10-31-13-11-30(12-14-31)9-2-4-21-17-27-25-7-6-23(16-24(21)25)32-18-28-29-19-32/h1,3,5-7,15-19,27H,2,4,8-14H2

> <Precursor_InChIKey>
ZUTQCPBDRJBADG-UHFFFAOYSA-N

> <Precursor_ALogP>


> <Precursor_Major_Isotope_Mass>
432.2437

$$$$
BTM00005
  CDK     0807241715

 33 37  0  0  0  0  0  0  0  0999 V2000
    0.0000    0.0000    0.0000 F   0  0  0  0  0  0  0  0  0  0  0  0
    0.0000    0.0000    0.0000 C   0  0  0  0  0  0  0  0  0  0  0  0
    0.0000    0.0000    0.0000 C   0  0  0  0  0  0  0  0  0  0  0  0
    0.0000    0.0000    0.0000 C   0  0  0  0  0  0  0  0  0  0  0  0
    0.0000    0.0000    0.0000 C   0  0  0  0  0  0  0  0  0  0  0  0
    0.0000    0.0000    0.0000 C   0  0  0  0  0  0  0  0  0  0  0  0
    0.0000    0.0000    0.0000 C   0  0  0  0  0  0  0  0  0  0  0  0
    0.0000    0.0000    0.0000 C   0  0  0  0  0  0  0  0  0  0  0  0
    0.0000    0.0000    0.0000 C   0  0  0  0  0  0  0  0  0  0  0  0
    0.0000    0.0000    0.0000 N   0  0  0  0  0  0  0  0  0  0  0  0
    0.0000    0.0000    0.0000 C   0  0  0  0  0  0  0  0  0  0  0  0
    0.0000    0.0000    0.0000 C   0  0  0  0  0  0  0  0  0  0  0  0
    0.0000    0.0000    0.0000 N   0  0  0  0  0  0  0  0  0  0  0  0
    0.0000    0.0000    0.0000 C   0  0  0  0  0  0  0  0  0  0  0  0
    0.0000    0.0000    0.0000 C   0  0  0  0  0  0  0  0  0  0  0  0
    0.0000    0.0000    0.0000 C   0  0  0  0  0  0  0  0  0  0  0  0
    0.0000    0.0000    0.0000 C   0  0  0  0  0  0  0  0  0  0  0  0
    0.0000    0.0000    0.0000 C   0  0  0  0  0  0  0  0  0  0  0  0
    0.0000    0.0000    0.0000 N   0  0  0  0  0  0  0  0  0  0  0  0
    0.0000    0.0000    0.0000 C   0  0  0  0  0  0  0  0  0  0  0  0
    0.0000    0.0000    0.0000 C   0  0  0  0  0  0  0  0  0  0  0  0
    0.0000    0.0000    0.0000 C   0  0  0  0  0  0  0  0  0  0  0  0
    0.0000    0.0000    0.0000 C   0  0  0  0  0  0  0  0  0  0  0  0
    0.0000    0.0000    0.0000 C   0  0  0  0  0  0  0  0  0  0  0  0
    0.0000    0.0000    0.0000 C   0  0  0  0  0  0  0  0  0  0  0  0
    0.0000    0.0000    0.0000 N   0  0  0  0  0  0  0  0  0  0  0  0
    0.0000    0.0000    0.0000 C   0  0  0  0  0  0  0  0  0  0  0  0
    0.0000    0.0000    0.0000 N   0  0  0  0  0  0  0  0  0  0  0  0
    0.0000    0.0000    0.0000 N   0  0  0  0  0  0  0  0  0  0  0  0
    0.0000    0.0000    0.0000 C   0  0  0  0  0  0  0  0  0  0  0  0
    0.0000    0.0000    0.0000 C   0  0  0  0  0  0  0  0  0  0  0  0
    0.0000    0.0000    0.0000 C   0  0  0  0  0  0  0  0  0  0  0  0
    0.0000    0.0000    0.0000 O   0  0  0  0  0  0  0  0  0  0  0  0
  1  2  1  0  0  0  0
  2  3  2  0  0  0  0
  3  4  1  0  0  0  0
  4  5  2  0  0  0  0
  5  6  1  0  0  0  0
  6  7  2  0  0  0  0
  2  7  1  0  0  0  0
  6  8  1  0  0  0  0
  8  9  1  0  0  0  0
  9 10  1  0  0  0  0
 10 11  1  0  0  0  0
 11 12  1  0  0  0  0
 12 13  1  0  0  0  0
 13 14  1  0  0  0  0
 14 15  1  0  0  0  0
 15 16  1  0  0  0  0
 16 17  1  0  0  0  0
 17 18  2  0  0  0  0
 18 19  1  0  0  0  0
 19 20  1  0  0  0  0
 20 21  2  0  0  0  0
 21 22  1  0  0  0  0
 22 23  2  0  0  0  0
 23 24  1  0  0  0  0
 24 25  2  0  0  0  0
 17 25  1  0  0  0  0
 20 25  1  0  0  0  0
 23 26  1  0  0  0  0
 26 27  1  0  0  0  0
 27 28  2  0  0  0  0
 28 29  1  0  0  0  0
 29 30  2  0  0  0  0
 26 30  1  0  0  0  0
 13 31  1  0  0  0  0
 31 32  1  0  0  0  0
 10 32  1  0  0  0  0
  8 33  1  0  0  0  0
M  END
> <InChI>
InChI=1S/C25H29FN6O/c26-21-5-1-3-19(13-21)25(33)16-31-11-9-30(10-12-31)8-2-4-20-15-27-24-7-6-22(14-23(20)24)32-17-28-29-18-32/h1,3,5-7,13-15,17-18,25,27,33H,2,4,8-12,16H2

> <InChIKey>
LSHOIAPVGOLDNC-UHFFFAOYSA-N

> <SMILES>
FC1=CC=CC(=C1)C(CN2CCN(CCCC3=CNC4=CC=C(C=C34)N5C=NN=C5)CC2)O

> <Synonyms>


> <PUBCHEM_CID>


> <Molecular_formula>
C25H29FN6O

> <Major_Isotope_Mass>
448.238687768

> <ALogP>
3.356500000000001

> <Lipinski_Violations>
0

> <Insecticide_Likeness_Violations>
0

> <Post_Em_Herbicide_Likeness_Violations>
0

> <Metabolite_ID>
BTM00005

> <Reaction>
Hydroxylation from CyProduct

> <Reaction_ID>
BTMR1328

> <Enzyme(s)>
CYP2C8
CYP3A4

> <Biosystem>
HUMAN

> <Precursor_ID>
TEST0087_L-775606

> <Precursor_SMILES>
FC1=CC=CC(CCN2CCN(CCCC3=CNC4=CC=C(C=C34)N5C=NN=C5)CC2)=C1

> <Precursor_InChI>
InChI=1S/C25H29FN6/c26-22-5-1-3-20(15-22)8-10-31-13-11-30(12-14-31)9-2-4-21-17-27-25-7-6-23(16-24(21)25)32-18-28-29-19-32/h1,3,5-7,15-19,27H,2,4,8-14H2

> <Precursor_InChIKey>
ZUTQCPBDRJBADG-UHFFFAOYSA-N

> <Precursor_ALogP>


> <Precursor_Major_Isotope_Mass>
432.2437

$$$$
