BTM00001
  CDK     0807241706

  6  5  0  0  0  0  0  0  0  0999 V2000
    0.0000    0.0000    0.0000 C   0  0  0  0  0  0  0  0  0  0  0  0
    0.0000    0.0000    0.0000 F   0  0  0  0  0  0  0  0  0  0  0  0
    0.0000    0.0000    0.0000 F   0  0  0  0  0  0  0  0  0  0  0  0
    0.0000    0.0000    0.0000 F   0  0  0  0  0  0  0  0  0  0  0  0
    0.0000    0.0000    0.0000 C   0  0  0  0  0  0  0  0  0  0  0  0
    0.0000    0.0000    0.0000 O   0  0  0  0  0  0  0  0  0  0  0  0
  1  2  1  0  0  0  0
  1  3  1  0  0  0  0
  1  4  1  0  0  0  0
  1  5  1  0  0  0  0
  5  6  2  0  0  0  0
M  END
> <InChI>
InChI=1S/C2HF3O/c3-2(4,5)1-6/h1H

> <InChIKey>
JVTSHOJDBRTPHD-UHFFFAOYSA-N

> <SMILES>
C(F)(F)(F)C=O

> <Synonyms>


> <PUBCHEM_CID>


> <Molecular_formula>
C2HF3O

> <Major_Isotope_Mass>
97.997949312

> <ALogP>
0.9057

> <Lipinski_Violations>
0

> <Insecticide_Likeness_Violations>
0

> <Post_Em_Herbicide_Likeness_Violations>
0

> <Metabolite_ID>
BTM00001

> <Reaction>
O-Dealkylation from CyProduct

> <Reaction_ID>
BTMR1331

> <Enzyme(s)>
CYP1A2
CYP2E1

> <Biosystem>
HUMAN

> <Precursor_ID>
TEST0025_Oteseconazole

> <Precursor_SMILES>
FC(F)([C@](O)(CN1N=NN=C1)C2=C(F)C=C(F)C=C2)C3=NC=C(C=C3)C4=CC=C(OCC(F)(F)F)C=C4

> <Precursor_InChI>
InChI=1S/C23H16F7N5O2/c24-16-4-7-18(19(25)9-16)21(36,11-35-13-32-33-34-35)23(29,30)20-8-3-15(10-31-20)14-1-5-17(6-2-14)37-12-22(26,27)28/h1-10,13,36H,11-12H2/t21-/m0/s1

> <Precursor_InChIKey>
IDUYJRXRDSPPRC-NRFANRHFSA-N

> <Precursor_ALogP>


> <Precursor_Major_Isotope_Mass>
527.1192

$$$$
BTM00002
  CDK     0807241706

 32 35  0  0  0  0  0  0  0  0999 V2000
    0.0000    0.0000    0.0000 F   0  0  0  0  0  0  0  0  0  0  0  0
    0.0000    0.0000    0.0000 C   0  0  0  0  0  0  0  0  0  0  0  0
    0.0000    0.0000    0.0000 F   0  0  0  0  0  0  0  0  0  0  0  0
    0.0000    0.0000    0.0000 C   0  0  0  0  0  0  0  0  0  0  0  0
    0.0000    0.0000    0.0000 O   0  0  0  0  0  0  0  0  0  0  0  0
    0.0000    0.0000    0.0000 C   0  0  0  0  0  0  0  0  0  0  0  0
    0.0000    0.0000    0.0000 N   0  0  0  0  0  0  0  0  0  0  0  0
    0.0000    0.0000    0.0000 N   0  0  0  0  0  0  0  0  0  0  0  0
    0.0000    0.0000    0.0000 N   0  0  0  0  0  0  0  0  0  0  0  0
    0.0000    0.0000    0.0000 N   0  0  0  0  0  0  0  0  0  0  0  0
    0.0000    0.0000    0.0000 C   0  0  0  0  0  0  0  0  0  0  0  0
    0.0000    0.0000    0.0000 C   0  0  0  0  0  0  0  0  0  0  0  0
    0.0000    0.0000    0.0000 C   0  0  0  0  0  0  0  0  0  0  0  0
    0.0000    0.0000    0.0000 F   0  0  0  0  0  0  0  0  0  0  0  0
    0.0000    0.0000    0.0000 C   0  0  0  0  0  0  0  0  0  0  0  0
    0.0000    0.0000    0.0000 C   0  0  0  0  0  0  0  0  0  0  0  0
    0.0000    0.0000    0.0000 F   0  0  0  0  0  0  0  0  0  0  0  0
    0.0000    0.0000    0.0000 C   0  0  0  0  0  0  0  0  0  0  0  0
    0.0000    0.0000    0.0000 C   0  0  0  0  0  0  0  0  0  0  0  0
    0.0000    0.0000    0.0000 C   0  0  0  0  0  0  0  0  0  0  0  0
    0.0000    0.0000    0.0000 N   0  0  0  0  0  0  0  0  0  0  0  0
    0.0000    0.0000    0.0000 C   0  0  0  0  0  0  0  0  0  0  0  0
    0.0000    0.0000    0.0000 C   0  0  0  0  0  0  0  0  0  0  0  0
    0.0000    0.0000    0.0000 C   0  0  0  0  0  0  0  0  0  0  0  0
    0.0000    0.0000    0.0000 C   0  0  0  0  0  0  0  0  0  0  0  0
    0.0000    0.0000    0.0000 C   0  0  0  0  0  0  0  0  0  0  0  0
    0.0000    0.0000    0.0000 C   0  0  0  0  0  0  0  0  0  0  0  0
    0.0000    0.0000    0.0000 C   0  0  0  0  0  0  0  0  0  0  0  0
    0.0000    0.0000    0.0000 C   0  0  0  0  0  0  0  0  0  0  0  0
    0.0000    0.0000    0.0000 C   0  0  0  0  0  0  0  0  0  0  0  0
    0.0000    0.0000    0.0000 C   0  0  0  0  0  0  0  0  0  0  0  0
    0.0000    0.0000    0.0000 O   0  0  0  0  0  0  0  0  0  0  0  0
  1  2  1  0  0  0  0
  2  3  1  0  0  0  0
  2  4  1  0  0  0  0
  4  5  1  0  0  0  0
  4  6  1  0  0  0  0
  6  7  1  0  0  0  0
  7  8  1  0  0  0  0
  8  9  2  0  0  0  0
  9 10  1  0  0  0  0
 10 11  2  0  0  0  0
  7 11  1  0  0  0  0
  4 12  1  0  0  0  0
 12 13  2  0  0  0  0
 13 14  1  0  0  0  0
 13 15  1  0  0  0  0
 15 16  2  0  0  0  0
 16 17  1  0  0  0  0
 16 18  1  0  0  0  0
 18 19  2  0  0  0  0
 12 19  1  0  0  0  0
  2 20  1  0  0  0  0
 20 21  2  0  0  0  0
 21 22  1  0  0  0  0
 22 23  2  0  0  0  0
 23 24  1  0  0  0  0
 24 25  2  0  0  0  0
 20 25  1  0  0  0  0
 23 26  1  0  0  0  0
 26 27  2  0  0  0  0
 27 28  1  0  0  0  0
 28 29  2  0  0  0  0
 29 30  1  0  0  0  0
 30 31  2  0  0  0  0
 26 31  1  0  0  0  0
 29 32  1  0  0  0  0
M  END
> <InChI>
InChI=1S/C21H15F4N5O2/c22-15-4-7-17(18(23)9-15)20(32,11-30-12-27-28-29-30)21(24,25)19-8-3-14(10-26-19)13-1-5-16(31)6-2-13/h1-10,12,31-32H,11H2

> <InChIKey>
DBTMJZFDSGXRMQ-UHFFFAOYSA-N

> <SMILES>
FC(F)(C(O)(CN1N=NN=C1)C2=C(F)C=C(F)C=C2)C3=NC=C(C=C3)C4=CC=C(C=C4)O

> <Synonyms>


> <PUBCHEM_CID>


> <Molecular_formula>
C21H15F4N5O2

> <Major_Isotope_Mass>
445.11618760000005

> <ALogP>
3.4332000000000003

> <Lipinski_Violations>
0

> <Insecticide_Likeness_Violations>
0

> <Post_Em_Herbicide_Likeness_Violations>
0

> <Metabolite_ID>
BTM00002

> <Reaction>
O-Dealkylation from CyProduct

> <Reaction_ID>
BTMR1331

> <Enzyme(s)>
CYP1A2
CYP2E1

> <Biosystem>
HUMAN

> <Precursor_ID>
TEST0025_Oteseconazole

> <Precursor_SMILES>
FC(F)([C@](O)(CN1N=NN=C1)C2=C(F)C=C(F)C=C2)C3=NC=C(C=C3)C4=CC=C(OCC(F)(F)F)C=C4

> <Precursor_InChI>
InChI=1S/C23H16F7N5O2/c24-16-4-7-18(19(25)9-16)21(36,11-35-13-32-33-34-35)23(29,30)20-8-3-15(10-31-20)14-1-5-17(6-2-14)37-12-22(26,27)28/h1-10,13,36H,11-12H2/t21-/m0/s1

> <Precursor_InChIKey>
IDUYJRXRDSPPRC-NRFANRHFSA-N

> <Precursor_ALogP>


> <Precursor_Major_Isotope_Mass>
527.1192

$$$$
