BTM00001
  CDK     0807241717

  3  2  0  0  0  0  0  0  0  0999 V2000
    0.0000    0.0000    0.0000 C   0  0  0  0  0  0  0  0  0  0  0  0
    0.0000    0.0000    0.0000 C   0  0  0  0  0  0  0  0  0  0  0  0
    0.0000    0.0000    0.0000 O   0  0  0  0  0  0  0  0  0  0  0  0
  1  2  1  0  0  0  0
  1  3  1  0  0  0  0
M  END
> <InChI>
InChI=1S/C2H6O/c1-2-3/h3H,2H2,1H3

> <InChIKey>
LFQSCWFLJHTTHZ-UHFFFAOYSA-N

> <SMILES>
C(C)O

> <Synonyms>


> <PUBCHEM_CID>


> <Molecular_formula>
C2H6O

> <Major_Isotope_Mass>
46.041864812

> <ALogP>
-0.009199999999999875

> <Lipinski_Violations>
0

> <Insecticide_Likeness_Violations>
0

> <Post_Em_Herbicide_Likeness_Violations>
0

> <Metabolite_ID>
BTM00001

> <Reaction>
O-Dealkylation from CyProduct

> <Reaction_ID>
BTMR1331

> <Enzyme(s)>
CYP2A6
CYP2E1

> <Biosystem>
HUMAN

> <Precursor_ID>
TEST0101_Diethyl_Ether

> <Precursor_SMILES>
O(CC)CC

> <Precursor_InChI>
InChI=1S/C4H10O/c1-3-5-4-2/h3-4H2,1-2H3

> <Precursor_InChIKey>
RTZKZFJDLAIYFH-UHFFFAOYSA-N

> <Precursor_ALogP>


> <Precursor_Major_Isotope_Mass>
74.07316

$$$$
BTM00002
  CDK     0807241717

  3  2  0  0  0  0  0  0  0  0999 V2000
    0.0000    0.0000    0.0000 C   0  0  0  0  0  0  0  0  0  0  0  0
    0.0000    0.0000    0.0000 C   0  0  0  0  0  0  0  0  0  0  0  0
    0.0000    0.0000    0.0000 O   0  0  0  0  0  0  0  0  0  0  0  0
  1  2  1  0  0  0  0
  2  3  2  0  0  0  0
M  END
> <InChI>
InChI=1S/C2H4O/c1-2-3/h2H,1H3

> <InChIKey>
IKHGUXGNUITLKF-UHFFFAOYSA-N

> <SMILES>
CC=O

> <Synonyms>


> <PUBCHEM_CID>


> <Molecular_formula>
C2H4O

> <Major_Isotope_Mass>
44.026214748

> <ALogP>
-0.1825

> <Lipinski_Violations>
0

> <Insecticide_Likeness_Violations>
0

> <Post_Em_Herbicide_Likeness_Violations>
0

> <Metabolite_ID>
BTM00002

> <Reaction>
O-Dealkylation from CyProduct

> <Reaction_ID>
BTMR1331

> <Enzyme(s)>
CYP2A6
CYP2E1

> <Biosystem>
HUMAN

> <Precursor_ID>
TEST0101_Diethyl_Ether

> <Precursor_SMILES>
O(CC)CC

> <Precursor_InChI>
InChI=1S/C4H10O/c1-3-5-4-2/h3-4H2,1-2H3

> <Precursor_InChIKey>
RTZKZFJDLAIYFH-UHFFFAOYSA-N

> <Precursor_ALogP>


> <Precursor_Major_Isotope_Mass>
74.07316

$$$$
