BTM00001
  CDK     0807241716

 27 29  0  0  0  0  0  0  0  0999 V2000
    0.0000    0.0000    0.0000 C   0  0  0  0  0  0  0  0  0  0  0  0
    0.0000    0.0000    0.0000 C   0  0  0  0  0  0  0  0  0  0  0  0
    0.0000    0.0000    0.0000 C   0  0  0  0  0  0  0  0  0  0  0  0
    0.0000    0.0000    0.0000 C   0  0  0  0  0  0  0  0  0  0  0  0
    0.0000    0.0000    0.0000 C   0  0  0  0  0  0  0  0  0  0  0  0
    0.0000    0.0000    0.0000 C   0  0  0  0  0  0  0  0  0  0  0  0
    0.0000    0.0000    0.0000 C   0  0  0  0  0  0  0  0  0  0  0  0
    0.0000    0.0000    0.0000 C   0  0  0  0  0  0  0  0  0  0  0  0
    0.0000    0.0000    0.0000 O   0  0  0  0  0  0  0  0  0  0  0  0
    0.0000    0.0000    0.0000 C   0  0  0  0  0  0  0  0  0  0  0  0
    0.0000    0.0000    0.0000 C   0  0  0  0  0  0  0  0  0  0  0  0
    0.0000    0.0000    0.0000 O   0  0  0  0  0  0  0  0  0  0  0  0
    0.0000    0.0000    0.0000 C   0  0  0  0  0  0  0  0  0  0  0  0
    0.0000    0.0000    0.0000 C   0  0  0  0  0  0  0  0  0  0  0  0
    0.0000    0.0000    0.0000 C   0  0  0  0  0  0  0  0  0  0  0  0
    0.0000    0.0000    0.0000 C   0  0  0  0  0  0  0  0  0  0  0  0
    0.0000    0.0000    0.0000 C   0  0  0  0  0  0  0  0  0  0  0  0
    0.0000    0.0000    0.0000 C   0  0  0  0  0  0  0  0  0  0  0  0
    0.0000    0.0000    0.0000 C   0  0  0  0  0  0  0  0  0  0  0  0
    0.0000    0.0000    0.0000 O   0  0  0  0  0  0  0  0  0  0  0  0
    0.0000    0.0000    0.0000 C   0  0  0  0  0  0  0  0  0  0  0  0
    0.0000    0.0000    0.0000 C   0  0  0  0  0  0  0  0  0  0  0  0
    0.0000    0.0000    0.0000 C   0  0  0  0  0  0  0  0  0  0  0  0
    0.0000    0.0000    0.0000 C   0  0  0  0  0  0  0  0  0  0  0  0
    0.0000    0.0000    0.0000 C   0  0  0  0  0  0  0  0  0  0  0  0
    0.0000    0.0000    0.0000 C   0  0  0  0  0  0  0  0  0  0  0  0
    0.0000    0.0000    0.0000 C   0  0  0  0  0  0  0  0  0  0  0  0
  1  2  1  0  0  0  0
  2  3  1  0  0  0  0
  3  4  2  0  0  0  0
  4  5  1  0  0  0  0
  5  6  2  0  0  0  0
  6  7  1  0  0  0  0
  7  8  2  0  0  0  0
  8  9  1  0  0  0  0
  9 10  1  0  0  0  0
 10 11  1  0  0  0  0
 11 12  2  0  0  0  0
  8 13  1  0  0  0  0
 13 14  2  0  0  0  0
  5 14  1  0  0  0  0
  4 15  1  0  0  0  0
 15 16  2  0  0  0  0
 16 17  1  0  0  0  0
 17 18  2  0  0  0  0
 18 19  1  0  0  0  0
 19 20  1  0  0  0  0
 19 21  2  0  0  0  0
 15 21  1  0  0  0  0
  3 22  1  0  0  0  0
 22 23  2  0  0  0  0
 23 24  1  0  0  0  0
 24 25  2  0  0  0  0
 25 26  1  0  0  0  0
 26 27  2  0  0  0  0
 22 27  1  0  0  0  0
M  END
> <InChI>
InChI=1S/C24H22O3/c1-2-23(18-7-4-3-5-8-18)24(20-9-6-10-21(26)17-20)19-11-13-22(14-12-19)27-16-15-25/h3-15,17,26H,2,16H2,1H3

> <InChIKey>
HDOWYEGZLKNDEL-UHFFFAOYSA-N

> <SMILES>
CCC(=C(C1=CC=C(OCC=O)C=C1)C2=CC=CC(O)=C2)C3=CC=CC=C3

> <Synonyms>


> <PUBCHEM_CID>


> <Molecular_formula>
C24H22O3

> <Major_Isotope_Mass>
358.15689456399997

> <ALogP>
5.6305000000000005

> <Lipinski_Violations>
1

> <Insecticide_Likeness_Violations>
0

> <Post_Em_Herbicide_Likeness_Violations>
0

> <Metabolite_ID>
BTM00001

> <Reaction>
N-Dealkylation from CyProduct

> <Reaction_ID>
BTMR1332

> <Enzyme(s)>
CYP1A2

> <Biosystem>
HUMAN

> <Precursor_ID>
TEST0093_Droloxifene

> <Precursor_SMILES>
CC/C(=C(/C1=CC=C(OCCN(C)C)C=C1)\C2=CC=CC(O)=C2)/C3=CC=CC=C3

> <Precursor_InChI>
InChI=1S/C26H29NO2/c1-4-25(20-9-6-5-7-10-20)26(22-11-8-12-23(28)19-22)21-13-15-24(16-14-21)29-18-17-27(2)3/h5-16,19,28H,4,17-18H2,1-3H3/b26-25+

> <Precursor_InChIKey>
ZQZFYGIXNQKOAV-OCEACIFDSA-N

> <Precursor_ALogP>


> <Precursor_Major_Isotope_Mass>
387.2198

$$$$
BTM00002
  CDK     0807241716

  3  2  0  0  0  0  0  0  0  0999 V2000
    0.0000    0.0000    0.0000 C   0  0  0  0  0  0  0  0  0  0  0  0
    0.0000    0.0000    0.0000 N   0  0  0  0  0  0  0  0  0  0  0  0
    0.0000    0.0000    0.0000 C   0  0  0  0  0  0  0  0  0  0  0  0
  1  2  1  0  0  0  0
  2  3  1  0  0  0  0
M  END
> <InChI>
InChI=1S/C2H7N/c1-3-2/h3H,1-2H3

> <InChIKey>
ROSDSFDQCJNGOL-UHFFFAOYSA-N

> <SMILES>
CNC

> <Synonyms>


> <PUBCHEM_CID>


> <Molecular_formula>
C2H7N

> <Major_Isotope_Mass>
45.057849224

> <ALogP>
-0.21580000000000035

> <Lipinski_Violations>
0

> <Insecticide_Likeness_Violations>
0

> <Post_Em_Herbicide_Likeness_Violations>
0

> <Metabolite_ID>
BTM00002

> <Reaction>
N-Dealkylation from CyProduct

> <Reaction_ID>
BTMR1332

> <Enzyme(s)>
CYP1A2

> <Biosystem>
HUMAN

> <Precursor_ID>
TEST0093_Droloxifene

> <Precursor_SMILES>
CC/C(=C(/C1=CC=C(OCCN(C)C)C=C1)\C2=CC=CC(O)=C2)/C3=CC=CC=C3

> <Precursor_InChI>
InChI=1S/C26H29NO2/c1-4-25(20-9-6-5-7-10-20)26(22-11-8-12-23(28)19-22)21-13-15-24(16-14-21)29-18-17-27(2)3/h5-16,19,28H,4,17-18H2,1-3H3/b26-25+

> <Precursor_InChIKey>
ZQZFYGIXNQKOAV-OCEACIFDSA-N

> <Precursor_ALogP>


> <Precursor_Major_Isotope_Mass>
387.2198

$$$$
BTM00003
  CDK     0807241716

 30 32  0  0  0  0  0  0  0  0999 V2000
    0.0000    0.0000    0.0000 C   0  0  0  0  0  0  0  0  0  0  0  0
    0.0000    0.0000    0.0000 C   0  0  0  0  0  0  0  0  0  0  0  0
    0.0000    0.0000    0.0000 C   0  0  0  0  0  0  0  0  0  0  0  0
    0.0000    0.0000    0.0000 C   0  0  0  0  0  0  0  0  0  0  0  0
    0.0000    0.0000    0.0000 C   0  0  0  0  0  0  0  0  0  0  0  0
    0.0000    0.0000    0.0000 C   0  0  0  0  0  0  0  0  0  0  0  0
    0.0000    0.0000    0.0000 C   0  0  0  0  0  0  0  0  0  0  0  0
    0.0000    0.0000    0.0000 C   0  0  0  0  0  0  0  0  0  0  0  0
    0.0000    0.0000    0.0000 O   0  0  0  0  0  0  0  0  0  0  0  0
    0.0000    0.0000    0.0000 C   0  0  0  0  0  0  0  0  0  0  0  0
    0.0000    0.0000    0.0000 C   0  0  0  0  0  0  0  0  0  0  0  0
    0.0000    0.0000    0.0000 N   0  0  0  0  0  0  0  0  0  0  0  0
    0.0000    0.0000    0.0000 C   0  0  0  0  0  0  0  0  0  0  0  0
    0.0000    0.0000    0.0000 C   0  0  0  0  0  0  0  0  0  0  0  0
    0.0000    0.0000    0.0000 C   0  0  0  0  0  0  0  0  0  0  0  0
    0.0000    0.0000    0.0000 C   0  0  0  0  0  0  0  0  0  0  0  0
    0.0000    0.0000    0.0000 C   0  0  0  0  0  0  0  0  0  0  0  0
    0.0000    0.0000    0.0000 C   0  0  0  0  0  0  0  0  0  0  0  0
    0.0000    0.0000    0.0000 C   0  0  0  0  0  0  0  0  0  0  0  0
    0.0000    0.0000    0.0000 C   0  0  0  0  0  0  0  0  0  0  0  0
    0.0000    0.0000    0.0000 C   0  0  0  0  0  0  0  0  0  0  0  0
    0.0000    0.0000    0.0000 O   0  0  0  0  0  0  0  0  0  0  0  0
    0.0000    0.0000    0.0000 C   0  0  0  0  0  0  0  0  0  0  0  0
    0.0000    0.0000    0.0000 C   0  0  0  0  0  0  0  0  0  0  0  0
    0.0000    0.0000    0.0000 C   0  0  0  0  0  0  0  0  0  0  0  0
    0.0000    0.0000    0.0000 C   0  0  0  0  0  0  0  0  0  0  0  0
    0.0000    0.0000    0.0000 C   0  0  0  0  0  0  0  0  0  0  0  0
    0.0000    0.0000    0.0000 C   0  0  0  0  0  0  0  0  0  0  0  0
    0.0000    0.0000    0.0000 C   0  0  0  0  0  0  0  0  0  0  0  0
    0.0000    0.0000    0.0000 O   0  0  0  0  0  0  0  0  0  0  0  0
  1  2  1  0  0  0  0
  2  3  1  0  0  0  0
  3  4  2  0  0  0  0
  4  5  1  0  0  0  0
  5  6  2  0  0  0  0
  6  7  1  0  0  0  0
  7  8  2  0  0  0  0
  8  9  1  0  0  0  0
  9 10  1  0  0  0  0
 10 11  1  0  0  0  0
 11 12  1  0  0  0  0
 12 13  1  0  0  0  0
 12 14  1  0  0  0  0
  8 15  1  0  0  0  0
 15 16  2  0  0  0  0
  5 16  1  0  0  0  0
  4 17  1  0  0  0  0
 17 18  2  0  0  0  0
 18 19  1  0  0  0  0
 19 20  2  0  0  0  0
 20 21  1  0  0  0  0
 21 22  1  0  0  0  0
 21 23  2  0  0  0  0
 17 23  1  0  0  0  0
  3 24  1  0  0  0  0
 24 25  2  0  0  0  0
 25 26  1  0  0  0  0
 26 27  2  0  0  0  0
 27 28  1  0  0  0  0
 28 29  2  0  0  0  0
 24 29  1  0  0  0  0
  2 30  1  0  0  0  0
M  END
> <InChI>
InChI=1S/C26H29NO3/c1-19(28)25(20-8-5-4-6-9-20)26(22-10-7-11-23(29)18-22)21-12-14-24(15-13-21)30-17-16-27(2)3/h4-15,18-19,28-29H,16-17H2,1-3H3

> <InChIKey>
XNBLYTHBXFFCME-UHFFFAOYSA-N

> <SMILES>
CC(C(=C(C1=CC=C(OCCN(C)C)C=C1)C2=CC=CC(O)=C2)C3=CC=CC=C3)O

> <Synonyms>


> <PUBCHEM_CID>


> <Molecular_formula>
C26H29NO3

> <Major_Isotope_Mass>
403.21474378799996

> <ALogP>
4.8828999999999985

> <Lipinski_Violations>
1

> <Insecticide_Likeness_Violations>
0

> <Post_Em_Herbicide_Likeness_Violations>
0

> <Metabolite_ID>
BTM00003

> <Reaction>
Hydroxylation from CyProduct

> <Reaction_ID>
BTMR1328

> <Enzyme(s)>
CYP2D6

> <Biosystem>
HUMAN

> <Precursor_ID>
TEST0093_Droloxifene

> <Precursor_SMILES>
CC/C(=C(/C1=CC=C(OCCN(C)C)C=C1)\C2=CC=CC(O)=C2)/C3=CC=CC=C3

> <Precursor_InChI>
InChI=1S/C26H29NO2/c1-4-25(20-9-6-5-7-10-20)26(22-11-8-12-23(28)19-22)21-13-15-24(16-14-21)29-18-17-27(2)3/h5-16,19,28H,4,17-18H2,1-3H3/b26-25+

> <Precursor_InChIKey>
ZQZFYGIXNQKOAV-OCEACIFDSA-N

> <Precursor_ALogP>


> <Precursor_Major_Isotope_Mass>
387.2198

$$$$
BTM00004
  CDK     0807241716

 28 30  0  0  0  0  0  0  0  0999 V2000
    0.0000    0.0000    0.0000 C   0  0  0  0  0  0  0  0  0  0  0  0
    0.0000    0.0000    0.0000 C   0  0  0  0  0  0  0  0  0  0  0  0
    0.0000    0.0000    0.0000 C   0  0  0  0  0  0  0  0  0  0  0  0
    0.0000    0.0000    0.0000 C   0  0  0  0  0  0  0  0  0  0  0  0
    0.0000    0.0000    0.0000 C   0  0  0  0  0  0  0  0  0  0  0  0
    0.0000    0.0000    0.0000 C   0  0  0  0  0  0  0  0  0  0  0  0
    0.0000    0.0000    0.0000 C   0  0  0  0  0  0  0  0  0  0  0  0
    0.0000    0.0000    0.0000 C   0  0  0  0  0  0  0  0  0  0  0  0
    0.0000    0.0000    0.0000 O   0  0  0  0  0  0  0  0  0  0  0  0
    0.0000    0.0000    0.0000 C   0  0  0  0  0  0  0  0  0  0  0  0
    0.0000    0.0000    0.0000 C   0  0  0  0  0  0  0  0  0  0  0  0
    0.0000    0.0000    0.0000 N   0  0  0  0  0  0  0  0  0  0  0  0
    0.0000    0.0000    0.0000 C   0  0  0  0  0  0  0  0  0  0  0  0
    0.0000    0.0000    0.0000 C   0  0  0  0  0  0  0  0  0  0  0  0
    0.0000    0.0000    0.0000 C   0  0  0  0  0  0  0  0  0  0  0  0
    0.0000    0.0000    0.0000 C   0  0  0  0  0  0  0  0  0  0  0  0
    0.0000    0.0000    0.0000 C   0  0  0  0  0  0  0  0  0  0  0  0
    0.0000    0.0000    0.0000 C   0  0  0  0  0  0  0  0  0  0  0  0
    0.0000    0.0000    0.0000 C   0  0  0  0  0  0  0  0  0  0  0  0
    0.0000    0.0000    0.0000 C   0  0  0  0  0  0  0  0  0  0  0  0
    0.0000    0.0000    0.0000 O   0  0  0  0  0  0  0  0  0  0  0  0
    0.0000    0.0000    0.0000 C   0  0  0  0  0  0  0  0  0  0  0  0
    0.0000    0.0000    0.0000 C   0  0  0  0  0  0  0  0  0  0  0  0
    0.0000    0.0000    0.0000 C   0  0  0  0  0  0  0  0  0  0  0  0
    0.0000    0.0000    0.0000 C   0  0  0  0  0  0  0  0  0  0  0  0
    0.0000    0.0000    0.0000 C   0  0  0  0  0  0  0  0  0  0  0  0
    0.0000    0.0000    0.0000 C   0  0  0  0  0  0  0  0  0  0  0  0
    0.0000    0.0000    0.0000 C   0  0  0  0  0  0  0  0  0  0  0  0
  1  2  1  0  0  0  0
  2  3  1  0  0  0  0
  3  4  2  0  0  0  0
  4  5  1  0  0  0  0
  5  6  2  0  0  0  0
  6  7  1  0  0  0  0
  7  8  2  0  0  0  0
  8  9  1  0  0  0  0
  9 10  1  0  0  0  0
 10 11  1  0  0  0  0
 11 12  1  0  0  0  0
 12 13  1  0  0  0  0
  8 14  1  0  0  0  0
 14 15  2  0  0  0  0
  5 15  1  0  0  0  0
  4 16  1  0  0  0  0
 16 17  2  0  0  0  0
 17 18  1  0  0  0  0
 18 19  2  0  0  0  0
 19 20  1  0  0  0  0
 20 21  1  0  0  0  0
 20 22  2  0  0  0  0
 16 22  1  0  0  0  0
  3 23  1  0  0  0  0
 23 24  2  0  0  0  0
 24 25  1  0  0  0  0
 25 26  2  0  0  0  0
 26 27  1  0  0  0  0
 27 28  2  0  0  0  0
 23 28  1  0  0  0  0
M  END
> <InChI>
InChI=1S/C25H27NO2/c1-3-24(19-8-5-4-6-9-19)25(21-10-7-11-22(27)18-21)20-12-14-23(15-13-20)28-17-16-26-2/h4-15,18,26-27H,3,16-17H2,1-2H3

> <InChIKey>
QPHNKIXIKDPNDI-UHFFFAOYSA-N

> <SMILES>
CCC(=C(C1=CC=C(OCCNC)C=C1)C2=CC=CC(O)=C2)C3=CC=CC=C3

> <Synonyms>


> <PUBCHEM_CID>


> <Molecular_formula>
C25H27NO2

> <Major_Isotope_Mass>
373.20417910400005

> <ALogP>
5.516399999999999

> <Lipinski_Violations>
1

> <Insecticide_Likeness_Violations>
0

> <Post_Em_Herbicide_Likeness_Violations>
0

> <Metabolite_ID>
BTM00004

> <Reaction>
N-Dealkylation from CyProduct

> <Reaction_ID>
BTMR1332

> <Enzyme(s)>
CYP1A2
CYP2C9
CYP2C19
CYP2D6
CYP3A4

> <Biosystem>
HUMAN

> <Precursor_ID>
TEST0093_Droloxifene

> <Precursor_SMILES>
CC/C(=C(/C1=CC=C(OCCN(C)C)C=C1)\C2=CC=CC(O)=C2)/C3=CC=CC=C3

> <Precursor_InChI>
InChI=1S/C26H29NO2/c1-4-25(20-9-6-5-7-10-20)26(22-11-8-12-23(28)19-22)21-13-15-24(16-14-21)29-18-17-27(2)3/h5-16,19,28H,4,17-18H2,1-3H3/b26-25+

> <Precursor_InChIKey>
ZQZFYGIXNQKOAV-OCEACIFDSA-N

> <Precursor_ALogP>


> <Precursor_Major_Isotope_Mass>
387.2198

$$$$
BTM00005
  CDK     0807241716

  2  1  0  0  0  0  0  0  0  0999 V2000
    0.0000    0.0000    0.0000 O   0  0  0  0  0  0  0  0  0  0  0  0
    0.0000    0.0000    0.0000 C   0  0  0  0  0  0  0  0  0  0  0  0
  1  2  2  0  0  0  0
M  END
> <InChI>
InChI=1S/CH2O/c1-2/h1H2

> <InChIKey>
WSFSSNUMVMOOMR-UHFFFAOYSA-N

> <SMILES>
O=C

> <Synonyms>


> <PUBCHEM_CID>


> <Molecular_formula>
CH2O

> <Major_Isotope_Mass>
30.010564684

> <ALogP>
-0.8841

> <Lipinski_Violations>
0

> <Insecticide_Likeness_Violations>
0

> <Post_Em_Herbicide_Likeness_Violations>
0

> <Metabolite_ID>
BTM00005

> <Reaction>
N-Dealkylation from CyProduct

> <Reaction_ID>
BTMR1332

> <Enzyme(s)>
CYP1A2
CYP2C9
CYP2C19
CYP2D6
CYP3A4

> <Biosystem>
HUMAN

> <Precursor_ID>
TEST0093_Droloxifene

> <Precursor_SMILES>
CC/C(=C(/C1=CC=C(OCCN(C)C)C=C1)\C2=CC=CC(O)=C2)/C3=CC=CC=C3

> <Precursor_InChI>
InChI=1S/C26H29NO2/c1-4-25(20-9-6-5-7-10-20)26(22-11-8-12-23(28)19-22)21-13-15-24(16-14-21)29-18-17-27(2)3/h5-16,19,28H,4,17-18H2,1-3H3/b26-25+

> <Precursor_InChIKey>
ZQZFYGIXNQKOAV-OCEACIFDSA-N

> <Precursor_ALogP>


> <Precursor_Major_Isotope_Mass>
387.2198

$$$$
BTM00006
  CDK     0807241716

 30 32  0  0  0  0  0  0  0  0999 V2000
    0.0000    0.0000    0.0000 C   0  0  0  0  0  0  0  0  0  0  0  0
    0.0000    0.0000    0.0000 C   0  0  0  0  0  0  0  0  0  0  0  0
    0.0000    0.0000    0.0000 C   0  0  0  0  0  0  0  0  0  0  0  0
    0.0000    0.0000    0.0000 C   0  0  0  0  0  0  0  0  0  0  0  0
    0.0000    0.0000    0.0000 C   0  0  0  0  0  0  0  0  0  0  0  0
    0.0000    0.0000    0.0000 C   0  0  0  0  0  0  0  0  0  0  0  0
    0.0000    0.0000    0.0000 C   0  0  0  0  0  0  0  0  0  0  0  0
    0.0000    0.0000    0.0000 C   0  0  0  0  0  0  0  0  0  0  0  0
    0.0000    0.0000    0.0000 O   0  0  0  0  0  0  0  0  0  0  0  0
    0.0000    0.0000    0.0000 C   0  0  0  0  0  0  0  0  0  0  0  0
    0.0000    0.0000    0.0000 C   0  0  0  0  0  0  0  0  0  0  0  0
    0.0000    0.0000    0.0000 N   0  0  0  0  0  0  0  0  0  0  0  0
    0.0000    0.0000    0.0000 C   0  0  0  0  0  0  0  0  0  0  0  0
    0.0000    0.0000    0.0000 C   0  0  0  0  0  0  0  0  0  0  0  0
    0.0000    0.0000    0.0000 C   0  0  0  0  0  0  0  0  0  0  0  0
    0.0000    0.0000    0.0000 C   0  0  0  0  0  0  0  0  0  0  0  0
    0.0000    0.0000    0.0000 C   0  0  0  0  0  0  0  0  0  0  0  0
    0.0000    0.0000    0.0000 C   0  0  0  0  0  0  0  0  0  0  0  0
    0.0000    0.0000    0.0000 C   0  0  0  0  0  0  0  0  0  0  0  0
    0.0000    0.0000    0.0000 C   0  0  0  0  0  0  0  0  0  0  0  0
    0.0000    0.0000    0.0000 C   0  0  0  0  0  0  0  0  0  0  0  0
    0.0000    0.0000    0.0000 O   0  0  0  0  0  0  0  0  0  0  0  0
    0.0000    0.0000    0.0000 C   0  0  0  0  0  0  0  0  0  0  0  0
    0.0000    0.0000    0.0000 O   0  0  0  0  0  0  0  0  0  0  0  0
    0.0000    0.0000    0.0000 C   0  0  0  0  0  0  0  0  0  0  0  0
    0.0000    0.0000    0.0000 C   0  0  0  0  0  0  0  0  0  0  0  0
    0.0000    0.0000    0.0000 C   0  0  0  0  0  0  0  0  0  0  0  0
    0.0000    0.0000    0.0000 C   0  0  0  0  0  0  0  0  0  0  0  0
    0.0000    0.0000    0.0000 C   0  0  0  0  0  0  0  0  0  0  0  0
    0.0000    0.0000    0.0000 C   0  0  0  0  0  0  0  0  0  0  0  0
  1  2  1  0  0  0  0
  2  3  1  0  0  0  0
  3  4  2  0  0  0  0
  4  5  1  0  0  0  0
  5  6  2  0  0  0  0
  6  7  1  0  0  0  0
  7  8  2  0  0  0  0
  8  9  1  0  0  0  0
  9 10  1  0  0  0  0
 10 11  1  0  0  0  0
 11 12  1  0  0  0  0
 12 13  1  0  0  0  0
 12 14  1  0  0  0  0
  8 15  1  0  0  0  0
 15 16  2  0  0  0  0
  5 16  1  0  0  0  0
  4 17  1  0  0  0  0
 17 18  2  0  0  0  0
 18 19  1  0  0  0  0
 19 20  2  0  0  0  0
 20 21  1  0  0  0  0
 21 22  1  0  0  0  0
 21 23  2  0  0  0  0
 17 23  1  0  0  0  0
 20 24  1  0  0  0  0
  3 25  1  0  0  0  0
 25 26  2  0  0  0  0
 26 27  1  0  0  0  0
 27 28  2  0  0  0  0
 28 29  1  0  0  0  0
 29 30  2  0  0  0  0
 25 30  1  0  0  0  0
M  END
> <InChI>
InChI=1S/C26H29NO3/c1-4-23(19-8-6-5-7-9-19)26(21-12-15-24(28)25(29)18-21)20-10-13-22(14-11-20)30-17-16-27(2)3/h5-15,18,28-29H,4,16-17H2,1-3H3

> <InChIKey>
XFIRLPDGPAOZML-UHFFFAOYSA-N

> <SMILES>
CCC(=C(C1=CC=C(OCCN(C)C)C=C1)C2=CC=C(C(O)=C2)O)C3=CC=CC=C3

> <Synonyms>


> <PUBCHEM_CID>


> <Molecular_formula>
C26H29NO3

> <Major_Isotope_Mass>
403.214743788

> <ALogP>
5.7849

> <Lipinski_Violations>
1

> <Insecticide_Likeness_Violations>
0

> <Post_Em_Herbicide_Likeness_Violations>
0

> <Metabolite_ID>
BTM00006

> <Reaction>
Hydroxylation from CyProduct

> <Reaction_ID>
BTMR1328

> <Enzyme(s)>
CYP2C19
CYP2D6
CYP3A4

> <Biosystem>
HUMAN

> <Precursor_ID>
TEST0093_Droloxifene

> <Precursor_SMILES>
CC/C(=C(/C1=CC=C(OCCN(C)C)C=C1)\C2=CC=CC(O)=C2)/C3=CC=CC=C3

> <Precursor_InChI>
InChI=1S/C26H29NO2/c1-4-25(20-9-6-5-7-10-20)26(22-11-8-12-23(28)19-22)21-13-15-24(16-14-21)29-18-17-27(2)3/h5-16,19,28H,4,17-18H2,1-3H3/b26-25+

> <Precursor_InChIKey>
ZQZFYGIXNQKOAV-OCEACIFDSA-N

> <Precursor_ALogP>


> <Precursor_Major_Isotope_Mass>
387.2198

$$$$
BTM00007
  CDK     0807241716

 30 32  0  0  0  0  0  0  0  0999 V2000
    0.0000    0.0000    0.0000 C   0  0  0  0  0  0  0  0  0  0  0  0
    0.0000    0.0000    0.0000 C   0  0  0  0  0  0  0  0  0  0  0  0
    0.0000    0.0000    0.0000 C   0  0  0  0  0  0  0  0  0  0  0  0
    0.0000    0.0000    0.0000 C   0  0  0  0  0  0  0  0  0  0  0  0
    0.0000    0.0000    0.0000 C   0  0  0  0  0  0  0  0  0  0  0  0
    0.0000    0.0000    0.0000 C   0  0  0  0  0  0  0  0  0  0  0  0
    0.0000    0.0000    0.0000 C   0  0  0  0  0  0  0  0  0  0  0  0
    0.0000    0.0000    0.0000 C   0  0  0  0  0  0  0  0  0  0  0  0
    0.0000    0.0000    0.0000 O   0  0  0  0  0  0  0  0  0  0  0  0
    0.0000    0.0000    0.0000 C   0  0  0  0  0  0  0  0  0  0  0  0
    0.0000    0.0000    0.0000 C   0  0  0  0  0  0  0  0  0  0  0  0
    0.0000    0.0000    0.0000 N   0  0  0  0  0  0  0  0  0  0  0  0
    0.0000    0.0000    0.0000 C   0  0  0  0  0  0  0  0  0  0  0  0
    0.0000    0.0000    0.0000 C   0  0  0  0  0  0  0  0  0  0  0  0
    0.0000    0.0000    0.0000 C   0  0  0  0  0  0  0  0  0  0  0  0
    0.0000    0.0000    0.0000 C   0  0  0  0  0  0  0  0  0  0  0  0
    0.0000    0.0000    0.0000 C   0  0  0  0  0  0  0  0  0  0  0  0
    0.0000    0.0000    0.0000 C   0  0  0  0  0  0  0  0  0  0  0  0
    0.0000    0.0000    0.0000 C   0  0  0  0  0  0  0  0  0  0  0  0
    0.0000    0.0000    0.0000 C   0  0  0  0  0  0  0  0  0  0  0  0
    0.0000    0.0000    0.0000 C   0  0  0  0  0  0  0  0  0  0  0  0
    0.0000    0.0000    0.0000 O   0  0  0  0  0  0  0  0  0  0  0  0
    0.0000    0.0000    0.0000 C   0  0  0  0  0  0  0  0  0  0  0  0
    0.0000    0.0000    0.0000 C   0  0  0  0  0  0  0  0  0  0  0  0
    0.0000    0.0000    0.0000 C   0  0  0  0  0  0  0  0  0  0  0  0
    0.0000    0.0000    0.0000 C   0  0  0  0  0  0  0  0  0  0  0  0
    0.0000    0.0000    0.0000 C   0  0  0  0  0  0  0  0  0  0  0  0
    0.0000    0.0000    0.0000 C   0  0  0  0  0  0  0  0  0  0  0  0
    0.0000    0.0000    0.0000 C   0  0  0  0  0  0  0  0  0  0  0  0
    0.0000    0.0000    0.0000 O   0  0  0  0  0  0  0  0  0  0  0  0
  1  2  1  0  0  0  0
  2  3  1  0  0  0  0
  3  4  2  0  0  0  0
  4  5  1  0  0  0  0
  5  6  2  0  0  0  0
  6  7  1  0  0  0  0
  7  8  2  0  0  0  0
  8  9  1  0  0  0  0
  9 10  1  0  0  0  0
 10 11  1  0  0  0  0
 11 12  1  0  0  0  0
 12 13  1  0  0  0  0
 12 14  1  0  0  0  0
  8 15  1  0  0  0  0
 15 16  2  0  0  0  0
  5 16  1  0  0  0  0
  4 17  1  0  0  0  0
 17 18  2  0  0  0  0
 18 19  1  0  0  0  0
 19 20  2  0  0  0  0
 20 21  1  0  0  0  0
 21 22  1  0  0  0  0
 21 23  2  0  0  0  0
 17 23  1  0  0  0  0
  3 24  1  0  0  0  0
 24 25  2  0  0  0  0
 25 26  1  0  0  0  0
 26 27  2  0  0  0  0
 27 28  1  0  0  0  0
 28 29  2  0  0  0  0
 24 29  1  0  0  0  0
 27 30  1  0  0  0  0
M  END
> <InChI>
InChI=1S/C26H29NO3/c1-4-25(19-8-12-22(28)13-9-19)26(21-6-5-7-23(29)18-21)20-10-14-24(15-11-20)30-17-16-27(2)3/h5-15,18,28-29H,4,16-17H2,1-3H3

> <InChIKey>
VENJGHMTJGNDTO-UHFFFAOYSA-N

> <SMILES>
CCC(=C(C1=CC=C(OCCN(C)C)C=C1)C2=CC=CC(O)=C2)C3=CC=C(C=C3)O

> <Synonyms>


> <PUBCHEM_CID>


> <Molecular_formula>
C26H29NO3

> <Major_Isotope_Mass>
403.21474378799996

> <ALogP>
5.7849

> <Lipinski_Violations>
1

> <Insecticide_Likeness_Violations>
0

> <Post_Em_Herbicide_Likeness_Violations>
0

> <Metabolite_ID>
BTM00007

> <Reaction>
Hydroxylation from CyProduct

> <Reaction_ID>
BTMR1328

> <Enzyme(s)>
CYP2B6
CYP2C19
CYP2D6

> <Biosystem>
HUMAN

> <Precursor_ID>
TEST0093_Droloxifene

> <Precursor_SMILES>
CC/C(=C(/C1=CC=C(OCCN(C)C)C=C1)\C2=CC=CC(O)=C2)/C3=CC=CC=C3

> <Precursor_InChI>
InChI=1S/C26H29NO2/c1-4-25(20-9-6-5-7-10-20)26(22-11-8-12-23(28)19-22)21-13-15-24(16-14-21)29-18-17-27(2)3/h5-16,19,28H,4,17-18H2,1-3H3/b26-25+

> <Precursor_InChIKey>
ZQZFYGIXNQKOAV-OCEACIFDSA-N

> <Precursor_ALogP>


> <Precursor_Major_Isotope_Mass>
387.2198

$$$$
