
  CDK     1017240709

 29 31  0  0  0  0  0  0  0  0999 V2000
    2.5989    1.5002    0.0000 C   0  0  0  0  0  0  0  0  0  0  0  0
    1.3000    0.7500    0.0000 C   0  0  0  0  0  0  0  0  0  0  0  0
    0.0000    1.5000    0.0000 C   0  0  0  0  0  0  0  0  0  0  0  0
   -1.3000    0.7500    0.0000 C   0  0  0  0  0  0  0  0  0  0  0  0
   -1.3000   -0.7500    0.0000 C   0  0  0  0  0  0  0  0  0  0  0  0
    0.0000   -1.5000    0.0000 C   0  0  0  0  0  0  0  0  0  0  0  0
    1.3000   -0.7500    0.0000 C   0  0  0  0  0  0  0  0  0  0  0  0
   -2.5989   -1.5002    0.0000 S   0  0  0  0  0  0  0  0  0  0  0  0
   -3.5629   -2.6494    0.0000 O   0  0  0  0  0  0  0  0  0  0  0  0
   -1.6346   -2.6491    0.0000 O   0  0  0  0  0  0  0  0  0  0  0  0
   -3.8981   -0.7504    0.0000 N   0  0  0  0  0  0  0  0  0  0  0  0
   -5.1970   -1.5006    0.0000 C   0  0  0  0  0  0  0  0  0  0  0  0
   -5.1970   -3.0015    0.0000 C   0  0  0  0  0  0  0  0  0  0  0  0
   -6.4963   -3.7527    0.0000 C   0  0  0  0  0  0  0  0  0  0  0  0
   -7.7956   -3.0031    0.0000 C   0  0  0  0  0  0  0  0  0  0  0  0
   -7.7956   -1.5023    0.0000 C   0  0  0  0  0  0  0  0  0  0  0  0
   -6.4963   -0.7510    0.0000 C   0  0  0  0  0  0  0  0  0  0  0  0
   -9.0945   -3.7533    0.0000 C   0  0  0  0  0  0  0  0  0  0  0  0
   -9.0942   -5.2533    0.0000 O   0  0  0  0  0  0  0  0  0  0  0  0
  -10.3936   -3.0035    0.0000 C   0  0  0  0  0  0  0  0  0  0  0  0
  -11.6925   -3.7537    0.0000 C   0  0  0  0  0  0  0  0  0  0  0  0
  -12.9917   -3.0040    0.0000 C   0  0  0  0  0  0  0  0  0  0  0  0
  -12.9915   -1.5031    0.0000 C   0  0  0  0  0  0  0  0  0  0  0  0
  -14.2906   -0.7533    0.0000 C   0  0  0  0  0  0  0  0  0  0  0  0
  -15.5900   -1.5044    0.0000 C   0  0  0  0  0  0  0  0  0  0  0  0
  -15.5903   -3.0052    0.0000 C   0  0  0  0  0  0  0  0  0  0  0  0
  -14.2911   -3.7550    0.0000 C   0  0  0  0  0  0  0  0  0  0  0  0
  -16.8893   -3.7552    0.0000 O   0  0  0  0  0  0  0  0  0  0  0  0
  -16.8892   -0.7546    0.0000 O   0  0  0  0  0  0  0  0  0  0  0  0
  1  2  1  0  0  0  0 
  2  3  2  0  0  0  0 
  3  4  1  0  0  0  0 
  4  5  2  0  0  0  0 
  5  6  1  0  0  0  0 
  6  7  2  0  0  0  0 
  2  7  1  0  0  0  0 
  5  8  1  0  0  0  0 
  8  9  2  0  0  0  0 
  8 10  2  0  0  0  0 
  8 11  1  0  0  0  0 
 11 12  1  0  0  0  0 
 12 13  2  0  0  0  0 
 13 14  1  0  0  0  0 
 14 15  2  0  0  0  0 
 15 16  1  0  0  0  0 
 16 17  2  0  0  0  0 
 12 17  1  0  0  0  0 
 15 18  1  0  0  0  0 
 18 19  2  0  0  0  0 
 18 20  1  4  0  0  0 
 20 21  2  0  0  0  0 
 21 22  1  0  0  0  0 
 22 23  2  0  0  0  0 
 23 24  1  0  0  0  0 
 24 25  2  0  0  0  0 
 25 26  1  0  0  0  0 
 26 27  2  0  0  0  0 
 22 27  1  0  0  0  0 
 26 28  1  0  0  0  0 
 25 29  1  0  0  0  0 
M  END
> <Rank>
1

> <Priority_score>
3.7199999999999998

> <Reaction_type>
aromatic hydroxylation

> <Parent_ID>
1

> <Parent_InChI>
InChI=1S/C22H19NO4S/c1-16-2-13-21(14-3-16)28(26,27)23-19-9-7-18(8-10-19)22(25)15-6-17-4-11-20(24)12-5-17/h2-15,23-24H,1H3/b15-6+

> <Parent_SMILES>
C([H])([H])([H])C1=C([H])C([H])=C(C([H])=C1[H])S(=O)(=O)N([H])C2=C([H])C([H])=C(C([H])=C2[H])C(=O)/C(/[H])=C(\[H])/C3=C([H])C([H])=C(C([H])=C3[H])O[H]

$$$$

  CDK     1017240709

 29 31  0  0  0  0  0  0  0  0999 V2000
   -2.5989    1.5002    0.0000 C   0  0  0  0  0  0  0  0  0  0  0  0
   -1.3000    0.7500    0.0000 C   0  0  0  0  0  0  0  0  0  0  0  0
    0.0000    1.5000    0.0000 C   0  0  0  0  0  0  0  0  0  0  0  0
    1.3000    0.7500    0.0000 C   0  0  0  0  0  0  0  0  0  0  0  0
    1.3000   -0.7500    0.0000 C   0  0  0  0  0  0  0  0  0  0  0  0
    0.0000   -1.5000    0.0000 C   0  0  0  0  0  0  0  0  0  0  0  0
   -1.3000   -0.7500    0.0000 C   0  0  0  0  0  0  0  0  0  0  0  0
   -2.5989   -1.5002    0.0000 O   0  0  0  0  0  0  0  0  0  0  0  0
    2.5989    1.5002    0.0000 S   0  0  0  0  0  0  0  0  0  0  0  0
    3.5629    2.6494    0.0000 O   0  0  0  0  0  0  0  0  0  0  0  0
    1.6346    2.6491    0.0000 O   0  0  0  0  0  0  0  0  0  0  0  0
    3.8981    0.7504    0.0000 N   0  0  0  0  0  0  0  0  0  0  0  0
    5.1970    1.5006    0.0000 C   0  0  0  0  0  0  0  0  0  0  0  0
    5.1970    3.0015    0.0000 C   0  0  0  0  0  0  0  0  0  0  0  0
    6.4963    3.7527    0.0000 C   0  0  0  0  0  0  0  0  0  0  0  0
    7.7956    3.0031    0.0000 C   0  0  0  0  0  0  0  0  0  0  0  0
    7.7956    1.5023    0.0000 C   0  0  0  0  0  0  0  0  0  0  0  0
    6.4963    0.7510    0.0000 C   0  0  0  0  0  0  0  0  0  0  0  0
    9.0945    3.7533    0.0000 C   0  0  0  0  0  0  0  0  0  0  0  0
    9.0942    5.2533    0.0000 O   0  0  0  0  0  0  0  0  0  0  0  0
   10.3936    3.0035    0.0000 C   0  0  0  0  0  0  0  0  0  0  0  0
   11.6925    3.7537    0.0000 C   0  0  0  0  0  0  0  0  0  0  0  0
   12.9917    3.0040    0.0000 C   0  0  0  0  0  0  0  0  0  0  0  0
   14.2869    3.7605    0.0000 C   0  0  0  0  0  0  0  0  0  0  0  0
   15.5751    3.0422    0.0000 C   0  0  0  0  0  0  0  0  0  0  0  0
   15.6084    1.4982    0.0000 C   0  0  0  0  0  0  0  0  0  0  0  0
   14.3132    0.7417    0.0000 C   0  0  0  0  0  0  0  0  0  0  0  0
   12.9847    1.5290    0.0000 C   0  0  0  0  0  0  0  0  0  0  0  0
   16.9173    0.7656    0.0000 O   0  0  0  0  0  0  0  0  0  0  0  0
  1  2  1  0  0  0  0 
  2  3  2  0  0  0  0 
  3  4  1  0  0  0  0 
  4  5  2  0  0  0  0 
  5  6  1  0  0  0  0 
  6  7  2  0  0  0  0 
  2  7  1  0  0  0  0 
  7  8  1  0  0  0  0 
  4  9  1  0  0  0  0 
  9 10  2  0  0  0  0 
  9 11  2  0  0  0  0 
  9 12  1  0  0  0  0 
 12 13  1  0  0  0  0 
 13 14  2  0  0  0  0 
 14 15  1  0  0  0  0 
 15 16  2  0  0  0  0 
 16 17  1  0  0  0  0 
 17 18  2  0  0  0  0 
 13 18  1  0  0  0  0 
 16 19  1  0  0  0  0 
 19 20  2  0  0  0  0 
 19 21  1  4  0  0  0 
 21 22  2  0  0  0  0 
 22 23  1  0  0  0  0 
 23 24  2  0  0  0  0 
 24 25  1  0  0  0  0 
 25 26  2  0  0  0  0 
 26 27  1  0  0  0  0 
 27 28  2  0  0  0  0 
 23 28  1  0  0  0  0 
 26 29  1  0  0  0  0 
M  END
> <Rank>
2

> <Priority_score>
3.66

> <Reaction_type>
aromatic hydroxylation with nih shift

> <Parent_ID>
1

> <Parent_InChI>
InChI=1S/C22H19NO4S/c1-16-2-13-21(14-3-16)28(26,27)23-19-9-7-18(8-10-19)22(25)15-6-17-4-11-20(24)12-5-17/h2-15,23-24H,1H3/b15-6+

> <Parent_SMILES>
C([H])([H])([H])C1=C([H])C([H])=C(C([H])=C1[H])S(=O)(=O)N([H])C2=C([H])C([H])=C(C([H])=C2[H])C(=O)/C(/[H])=C(\[H])/C3=C([H])C([H])=C(C([H])=C3[H])O[H]

$$$$

  CDK     1017240709

 29 31  0  0  0  0  0  0  0  0999 V2000
    8.5735    9.2843    0.0000 C   0  0  0  0  0  0  0  0  0  0  0  0
    8.5881   10.7591    0.0000 C   0  0  0  0  0  0  0  0  0  0  0  0
    9.8871   11.5091    0.0000 C   0  0  0  0  0  0  0  0  0  0  0  0
   11.1716   10.7843    0.0000 C   0  0  0  0  0  0  0  0  0  0  0  0
   11.1971    9.2401    0.0000 C   0  0  0  0  0  0  0  0  0  0  0  0
    9.8981    8.4901    0.0000 C   0  0  0  0  0  0  0  0  0  0  0  0
   12.5023    8.5009    0.0000 O   0  0  0  0  0  0  0  0  0  0  0  0
    7.2927   11.5155    0.0000 C   0  0  0  0  0  0  0  0  0  0  0  0
    5.9900   10.7719    0.0000 C   0  0  0  0  0  0  0  0  0  0  0  0
    4.6947   11.5283    0.0000 C   0  0  0  0  0  0  0  0  0  0  0  0
    4.7021   13.0283    0.0000 O   0  0  0  0  0  0  0  0  0  0  0  0
    3.3920   10.7847    0.0000 C   0  0  0  0  0  0  0  0  0  0  0  0
    2.0965   11.5409    0.0000 C   0  0  0  0  0  0  0  0  0  0  0  0
    0.7934   10.7962    0.0000 C   0  0  0  0  0  0  0  0  0  0  0  0
    0.7858    9.2954    0.0000 C   0  0  0  0  0  0  0  0  0  0  0  0
    2.0813    8.5392    0.0000 C   0  0  0  0  0  0  0  0  0  0  0  0
    3.3843    9.2839    0.0000 C   0  0  0  0  0  0  0  0  0  0  0  0
   -0.5169    8.5518    0.0000 N   0  0  0  0  0  0  0  0  0  0  0  0
   -1.8122    9.3082    0.0000 S   0  0  0  0  0  0  0  0  0  0  0  0
   -0.8424   10.4525    0.0000 O   0  0  0  0  0  0  0  0  0  0  0  0
   -2.7708   10.4620    0.0000 O   0  0  0  0  0  0  0  0  0  0  0  0
   -3.1150    8.5646    0.0000 C   0  0  0  0  0  0  0  0  0  0  0  0
   -3.1226    7.0646    0.0000 C   0  0  0  0  0  0  0  0  0  0  0  0
   -4.4264    6.3212    0.0000 C   0  0  0  0  0  0  0  0  0  0  0  0
   -5.7225    7.0778    0.0000 C   0  0  0  0  0  0  0  0  0  0  0  0
   -5.7149    8.5778    0.0000 C   0  0  0  0  0  0  0  0  0  0  0  0
   -4.4111    9.3212    0.0000 C   0  0  0  0  0  0  0  0  0  0  0  0
   -7.0253    6.3342    0.0000 C   0  0  0  0  0  0  0  0  0  0  0  0
   -8.3206    7.0906    0.0000 O   0  0  0  0  0  0  0  0  0  0  0  0
  1  2  2  0  0  0  0 
  2  3  1  0  0  0  0 
  3  4  2  0  0  0  0 
  4  5  1  0  0  0  0 
  5  6  2  0  0  0  0 
  1  6  1  0  0  0  0 
  5  7  1  0  0  0  0 
  2  8  1  0  0  0  0 
  8  9  2  0  0  0  0 
  9 10  1  4  0  0  0 
 10 11  2  0  0  0  0 
 10 12  1  0  0  0  0 
 12 13  2  0  0  0  0 
 13 14  1  0  0  0  0 
 14 15  2  0  0  0  0 
 15 16  1  0  0  0  0 
 16 17  2  0  0  0  0 
 12 17  1  0  0  0  0 
 15 18  1  0  0  0  0 
 18 19  1  0  0  0  0 
 19 20  2  0  0  0  0 
 19 21  2  0  0  0  0 
 19 22  1  0  0  0  0 
 22 23  2  0  0  0  0 
 23 24  1  0  0  0  0 
 24 25  2  0  0  0  0 
 25 26  1  0  0  0  0 
 26 27  2  0  0  0  0 
 22 27  1  0  0  0  0 
 25 28  1  0  0  0  0 
 28 29  1  0  0  0  0 
M  END
> <Rank>
2

> <Priority_score>
3.66

> <Reaction_type>
aliphatic hydroxylation

> <Parent_ID>
1

> <Parent_InChI>
InChI=1S/C22H19NO4S/c1-16-2-13-21(14-3-16)28(26,27)23-19-9-7-18(8-10-19)22(25)15-6-17-4-11-20(24)12-5-17/h2-15,23-24H,1H3/b15-6+

> <Parent_SMILES>
C([H])([H])([H])C1=C([H])C([H])=C(C([H])=C1[H])S(=O)(=O)N([H])C2=C([H])C([H])=C(C([H])=C2[H])C(=O)/C(/[H])=C(\[H])/C3=C([H])C([H])=C(C([H])=C3[H])O[H]

$$$$

  CDK     1017240709

 29 31  0  0  0  0  0  0  0  0999 V2000
  -17.4246   -5.2533    0.0000 C   0  0  0  0  0  0  0  0  0  0  0  0
  -16.1256   -4.5031    0.0000 C   0  0  0  0  0  0  0  0  0  0  0  0
  -14.8256   -5.2531    0.0000 C   0  0  0  0  0  0  0  0  0  0  0  0
  -13.5256   -4.5031    0.0000 C   0  0  0  0  0  0  0  0  0  0  0  0
  -13.5256   -3.0031    0.0000 C   0  0  0  0  0  0  0  0  0  0  0  0
  -14.8256   -2.2531    0.0000 C   0  0  0  0  0  0  0  0  0  0  0  0
  -16.1256   -3.0031    0.0000 C   0  0  0  0  0  0  0  0  0  0  0  0
  -12.2267   -2.2529    0.0000 S   0  0  0  0  0  0  0  0  0  0  0  0
  -11.2627   -1.1037    0.0000 O   0  0  0  0  0  0  0  0  0  0  0  0
  -13.1911   -1.1040    0.0000 O   0  0  0  0  0  0  0  0  0  0  0  0
  -10.9276   -3.0027    0.0000 N   0  0  0  0  0  0  0  0  0  0  0  0
   -9.6286   -2.2525    0.0000 C   0  0  0  0  0  0  0  0  0  0  0  0
   -9.6286   -0.7517    0.0000 C   0  0  0  0  0  0  0  0  0  0  0  0
   -8.3294   -0.0004    0.0000 C   0  0  0  0  0  0  0  0  0  0  0  0
   -7.0301   -0.7500    0.0000 C   0  0  0  0  0  0  0  0  0  0  0  0
   -7.0301   -2.2508    0.0000 C   0  0  0  0  0  0  0  0  0  0  0  0
   -8.3294   -3.0021    0.0000 C   0  0  0  0  0  0  0  0  0  0  0  0
   -5.7312    0.0002    0.0000 C   0  0  0  0  0  0  0  0  0  0  0  0
   -5.7314    1.5002    0.0000 O   0  0  0  0  0  0  0  0  0  0  0  0
   -4.4320   -0.7496    0.0000 C   0  0  0  0  0  0  0  0  0  0  0  0
   -3.1331    0.0006    0.0000 C   0  0  0  0  0  0  0  0  0  0  0  0
   -1.8339   -0.7492    0.0000 C   0  0  0  0  0  0  0  0  0  0  0  0
   -1.3207    0.6612    0.0000 C   0  0  0  0  0  0  0  0  0  0  0  0
    0.1572    0.9228    0.0000 C   0  0  0  0  0  0  0  0  0  0  0  0
    1.1218   -0.2259    0.0000 C   0  0  0  0  0  0  0  0  0  0  0  0
    2.5989    0.0349    0.0000 O   0  0  0  0  0  0  0  0  0  0  0  0
    0.6085   -1.6362    0.0000 C   0  0  0  0  0  0  0  0  0  0  0  0
   -0.8693   -1.8979    0.0000 C   0  0  0  0  0  0  0  0  0  0  0  0
   -2.7978   -1.8985    0.0000 O   0  0  0  0  0  0  0  0  0  0  0  0
  1  2  1  0  0  0  0 
  2  3  2  0  0  0  0 
  3  4  1  0  0  0  0 
  4  5  2  0  0  0  0 
  5  6  1  0  0  0  0 
  6  7  2  0  0  0  0 
  2  7  1  0  0  0  0 
  5  8  1  0  0  0  0 
  8  9  2  0  0  0  0 
  8 10  2  0  0  0  0 
  8 11  1  0  0  0  0 
 11 12  1  0  0  0  0 
 12 13  2  0  0  0  0 
 13 14  1  0  0  0  0 
 14 15  2  0  0  0  0 
 15 16  1  0  0  0  0 
 16 17  2  0  0  0  0 
 12 17  1  0  0  0  0 
 15 18  1  0  0  0  0 
 18 19  2  0  0  0  0 
 18 20  1  4  0  0  0 
 20 21  2  0  0  0  0 
 21 22  1  0  0  0  0 
 22 23  1  0  0  0  0 
 23 24  2  0  0  0  0 
 24 25  1  0  0  0  0 
 25 26  2  0  0  0  0 
 25 27  1  0  0  0  0 
 27 28  2  0  0  0  0 
 22 28  1  0  0  0  0 
 22 29  1  0  0  0  0 
M  END
> <Rank>
4

> <Priority_score>
0.744

> <Reaction_type>
oxidation of 4-substituted phenol to quinone (substituent not a leaving group)

> <Parent_ID>
1

> <Parent_InChI>
InChI=1S/C22H19NO4S/c1-16-2-13-21(14-3-16)28(26,27)23-19-9-7-18(8-10-19)22(25)15-6-17-4-11-20(24)12-5-17/h2-15,23-24H,1H3/b15-6+

> <Parent_SMILES>
C([H])([H])([H])C1=C([H])C([H])=C(C([H])=C1[H])S(=O)(=O)N([H])C2=C([H])C([H])=C(C([H])=C2[H])C(=O)/C(/[H])=C(\[H])/C3=C([H])C([H])=C(C([H])=C3[H])O[H]

$$$$

  CDK     1017240709

 29 32  0  0  0  0  0  0  0  0999 V2000
    5.8402    2.8801    0.0000 C   0  0  0  0  0  0  0  0  0  0  0  0
    4.5410    2.1303    0.0000 C   0  0  0  0  0  0  0  0  0  0  0  0
    3.2413    2.8808    0.0000 C   0  0  0  0  0  0  0  0  0  0  0  0
    1.9410    2.1312    0.0000 C   0  0  0  0  0  0  0  0  0  0  0  0
    1.9405    0.6312    0.0000 C   0  0  0  0  0  0  0  0  0  0  0  0
    3.2403   -0.1192    0.0000 C   0  0  0  0  0  0  0  0  0  0  0  0
    4.5405    0.6303    0.0000 C   0  0  0  0  0  0  0  0  0  0  0  0
    0.6414   -0.1186    0.0000 S   0  0  0  0  0  0  0  0  0  0  0  0
   -0.3230   -1.2675    0.0000 O   0  0  0  0  0  0  0  0  0  0  0  0
    1.6054   -1.2678    0.0000 O   0  0  0  0  0  0  0  0  0  0  0  0
   -0.6575    0.6316    0.0000 N   0  0  0  0  0  0  0  0  0  0  0  0
   -1.9567   -0.1182    0.0000 C   0  0  0  0  0  0  0  0  0  0  0  0
   -1.9572   -1.6190    0.0000 C   0  0  0  0  0  0  0  0  0  0  0  0
   -3.2567   -2.3699    0.0000 C   0  0  0  0  0  0  0  0  0  0  0  0
   -4.5557   -1.6199    0.0000 C   0  0  0  0  0  0  0  0  0  0  0  0
   -4.5552   -0.1190    0.0000 C   0  0  0  0  0  0  0  0  0  0  0  0
   -3.2557    0.6318    0.0000 C   0  0  0  0  0  0  0  0  0  0  0  0
   -5.8549   -2.3697    0.0000 C   0  0  0  0  0  0  0  0  0  0  0  0
   -5.8551   -3.8697    0.0000 O   0  0  0  0  0  0  0  0  0  0  0  0
   -7.1538   -1.6195    0.0000 C   0  0  0  0  0  0  0  0  0  0  0  0
   -8.6538   -1.6195    0.0000 C   0  0  0  0  0  0  0  0  0  0  0  0
   -9.9527   -2.3697    0.0000 C   0  0  0  0  0  0  0  0  0  0  0  0
   -9.9451   -3.8696    0.0000 C   0  0  0  0  0  0  0  0  0  0  0  0
  -11.2113   -4.6261    0.0000 C   0  0  0  0  0  0  0  0  0  0  0  0
  -12.5651   -3.8830    0.0000 C   0  0  0  0  0  0  0  0  0  0  0  0
  -12.5727   -2.3830    0.0000 C   0  0  0  0  0  0  0  0  0  0  0  0
  -11.2265   -1.6261    0.0000 C   0  0  0  0  0  0  0  0  0  0  0  0
  -13.8540   -4.6502    0.0000 O   0  0  0  0  0  0  0  0  0  0  0  0
   -7.9038   -0.3195    0.0000 O   0  0  0  0  0  0  0  0  0  0  0  0
  1  2  1  0  0  0  0 
  2  3  2  0  0  0  0 
  3  4  1  0  0  0  0 
  4  5  2  0  0  0  0 
  5  6  1  0  0  0  0 
  6  7  2  0  0  0  0 
  2  7  1  0  0  0  0 
  5  8  1  0  0  0  0 
  8  9  2  0  0  0  0 
  8 10  2  0  0  0  0 
  8 11  1  0  0  0  0 
 11 12  1  0  0  0  0 
 12 13  2  0  0  0  0 
 13 14  1  0  0  0  0 
 14 15  2  0  0  0  0 
 15 16  1  0  0  0  0 
 16 17  2  0  0  0  0 
 12 17  1  0  0  0  0 
 15 18  1  0  0  0  0 
 18 19  2  0  0  0  0 
 18 20  1  0  0  0  0 
 20 21  1  0  0  0  0 
 21 22  1  0  0  0  0 
 22 23  2  0  0  0  0 
 23 24  1  0  0  0  0 
 24 25  2  0  0  0  0 
 25 26  1  0  0  0  0 
 26 27  2  0  0  0  0 
 22 27  1  0  0  0  0 
 25 28  1  0  0  0  0 
 21 29  1  0  0  0  0 
 20 29  1  0  0  0  0 
M  END
> <Rank>
5

> <Priority_score>
0.47

> <Reaction_type>
epoxidation

> <Parent_ID>
1

> <Parent_InChI>
InChI=1S/C22H19NO4S/c1-16-2-13-21(14-3-16)28(26,27)23-19-9-7-18(8-10-19)22(25)15-6-17-4-11-20(24)12-5-17/h2-15,23-24H,1H3/b15-6+

> <Parent_SMILES>
C([H])([H])([H])C1=C([H])C([H])=C(C([H])=C1[H])S(=O)(=O)N([H])C2=C([H])C([H])=C(C([H])=C2[H])C(=O)/C(/[H])=C(\[H])/C3=C([H])C([H])=C(C([H])=C3[H])O[H]

$$$$

  CDK     1017240709

 29 31  0  0  0  0  0  0  0  0999 V2000
    2.5989    1.5002    0.0000 C   0  0  0  0  0  0  0  0  0  0  0  0
    1.3000    0.7500    0.0000 C   0  0  0  0  0  0  0  0  0  0  0  0
    0.0000    1.5000    0.0000 C   0  0  0  0  0  0  0  0  0  0  0  0
   -1.3000    0.7500    0.0000 C   0  0  0  0  0  0  0  0  0  0  0  0
   -1.3000   -0.7500    0.0000 C   0  0  0  0  0  0  0  0  0  0  0  0
    0.0000   -1.5000    0.0000 C   0  0  0  0  0  0  0  0  0  0  0  0
    1.3000   -0.7500    0.0000 C   0  0  0  0  0  0  0  0  0  0  0  0
   -2.5989   -1.5002    0.0000 S   0  0  0  0  0  0  0  0  0  0  0  0
   -3.8978   -2.2504    0.0000 O   0  0  0  0  0  0  0  0  0  0  0  0
   -2.5987   -3.0002    0.0000 O   0  0  0  0  0  0  0  0  0  0  0  0
   -1.2998   -2.2500    0.0000 O   0  0  0  0  0  0  0  0  0  0  0  0
   -3.8981   -0.7504    0.0000 N   0  0  0  0  0  0  0  0  0  0  0  0
   -5.1970   -1.5006    0.0000 C   0  0  0  0  0  0  0  0  0  0  0  0
   -5.1970   -3.0015    0.0000 C   0  0  0  0  0  0  0  0  0  0  0  0
   -6.4963   -3.7527    0.0000 C   0  0  0  0  0  0  0  0  0  0  0  0
   -7.7956   -3.0031    0.0000 C   0  0  0  0  0  0  0  0  0  0  0  0
   -7.7956   -1.5023    0.0000 C   0  0  0  0  0  0  0  0  0  0  0  0
   -6.4963   -0.7510    0.0000 C   0  0  0  0  0  0  0  0  0  0  0  0
   -9.0945   -3.7533    0.0000 C   0  0  0  0  0  0  0  0  0  0  0  0
   -9.0942   -5.2533    0.0000 O   0  0  0  0  0  0  0  0  0  0  0  0
  -10.3936   -3.0035    0.0000 C   0  0  0  0  0  0  0  0  0  0  0  0
  -11.6925   -3.7537    0.0000 C   0  0  0  0  0  0  0  0  0  0  0  0
  -12.9917   -3.0040    0.0000 C   0  0  0  0  0  0  0  0  0  0  0  0
  -14.2869   -3.7605    0.0000 C   0  0  0  0  0  0  0  0  0  0  0  0
  -15.5751   -3.0422    0.0000 C   0  0  0  0  0  0  0  0  0  0  0  0
  -15.6084   -1.4982    0.0000 C   0  0  0  0  0  0  0  0  0  0  0  0
  -14.3132   -0.7417    0.0000 C   0  0  0  0  0  0  0  0  0  0  0  0
  -12.9847   -1.5290    0.0000 C   0  0  0  0  0  0  0  0  0  0  0  0
  -16.9173   -0.7656    0.0000 O   0  0  0  0  0  0  0  0  0  0  0  0
  1  2  1  0  0  0  0 
  2  3  2  0  0  0  0 
  3  4  1  0  0  0  0 
  4  5  2  0  0  0  0 
  5  6  1  0  0  0  0 
  6  7  2  0  0  0  0 
  2  7  1  0  0  0  0 
  5  8  1  0  0  0  0 
  8  9  2  0  0  0  0 
  8 10  2  0  0  0  0 
  8 11  2  0  0  0  0 
  8 12  1  0  0  0  0 
 12 13  1  0  0  0  0 
 13 14  2  0  0  0  0 
 14 15  1  0  0  0  0 
 15 16  2  0  0  0  0 
 16 17  1  0  0  0  0 
 17 18  2  0  0  0  0 
 13 18  1  0  0  0  0 
 16 19  1  0  0  0  0 
 19 20  2  0  0  0  0 
 19 21  1  4  0  0  0 
 21 22  2  0  0  0  0 
 22 23  1  0  0  0  0 
 23 24  2  0  0  0  0 
 24 25  1  0  0  0  0 
 25 26  2  0  0  0  0 
 26 27  1  0  0  0  0 
 27 28  2  0  0  0  0 
 23 28  1  0  0  0  0 
 26 29  1  0  0  0  0 
M  END
> <Rank>
6

> <Priority_score>
0.41000000000000003

> <Reaction_type>
S-oxidation

> <Parent_ID>
1

> <Parent_InChI>
InChI=1S/C22H19NO4S/c1-16-2-13-21(14-3-16)28(26,27)23-19-9-7-18(8-10-19)22(25)15-6-17-4-11-20(24)12-5-17/h2-15,23-24H,1H3/b15-6+

> <Parent_SMILES>
C([H])([H])([H])C1=C([H])C([H])=C(C([H])=C1[H])S(=O)(=O)N([H])C2=C([H])C([H])=C(C([H])=C2[H])C(=O)/C(/[H])=C(\[H])/C3=C([H])C([H])=C(C([H])=C3[H])O[H]

$$$$

  CDK     1017240709

 29 31  0  0  0  0  0  0  0  0999 V2000
    2.5989    1.5002    0.0000 C   0  0  0  0  0  0  0  0  0  0  0  0
    1.3000    0.7500    0.0000 C   0  0  0  0  0  0  0  0  0  0  0  0
    0.0000    1.5000    0.0000 C   0  0  0  0  0  0  0  0  0  0  0  0
   -1.3000    0.7500    0.0000 C   0  0  0  0  0  0  0  0  0  0  0  0
   -1.3000   -0.7500    0.0000 C   0  0  0  0  0  0  0  0  0  0  0  0
    0.0000   -1.5000    0.0000 C   0  0  0  0  0  0  0  0  0  0  0  0
    1.3000   -0.7500    0.0000 C   0  0  0  0  0  0  0  0  0  0  0  0
   -2.5989   -1.5002    0.0000 S   0  0  0  0  0  0  0  0  0  0  0  0
   -3.5629   -2.6494    0.0000 O   0  0  0  0  0  0  0  0  0  0  0  0
   -1.6346   -2.6491    0.0000 O   0  0  0  0  0  0  0  0  0  0  0  0
   -3.8981   -0.7504    0.0000 N   0  0  0  0  0  0  0  0  0  0  0  0
   -5.1970   -1.5006    0.0000 C   0  0  0  0  0  0  0  0  0  0  0  0
   -5.1970   -3.0015    0.0000 C   0  0  0  0  0  0  0  0  0  0  0  0
   -6.4963   -3.7527    0.0000 C   0  0  0  0  0  0  0  0  0  0  0  0
   -7.7956   -3.0031    0.0000 C   0  0  0  0  0  0  0  0  0  0  0  0
   -7.7956   -1.5023    0.0000 C   0  0  0  0  0  0  0  0  0  0  0  0
   -6.4963   -0.7510    0.0000 C   0  0  0  0  0  0  0  0  0  0  0  0
   -9.0945   -3.7533    0.0000 C   0  0  0  0  0  0  0  0  0  0  0  0
   -9.0942   -5.2533    0.0000 O   0  0  0  0  0  0  0  0  0  0  0  0
  -10.3936   -3.0035    0.0000 C   0  0  0  0  0  0  0  0  0  0  0  0
  -11.6925   -3.7537    0.0000 C   0  0  0  0  0  0  0  0  0  0  0  0
  -12.9917   -3.0040    0.0000 C   0  0  0  0  0  0  0  0  0  0  0  0
  -14.2915   -3.7544    0.0000 C   0  0  0  0  0  0  0  0  0  0  0  0
  -15.5917   -3.0048    0.0000 C   0  0  0  0  0  0  0  0  0  0  0  0
  -15.5922   -1.5048    0.0000 C   0  0  0  0  0  0  0  0  0  0  0  0
  -14.2924   -0.7544    0.0000 C   0  0  0  0  0  0  0  0  0  0  0  0
  -12.9922   -1.5040    0.0000 C   0  0  0  0  0  0  0  0  0  0  0  0
  -11.6935   -0.7533    0.0000 O   0  0  0  0  0  0  0  0  0  0  0  0
  -16.8913   -0.7550    0.0000 O   0  0  0  0  0  0  0  0  0  0  0  0
  1  2  1  0  0  0  0 
  2  3  2  0  0  0  0 
  3  4  1  0  0  0  0 
  4  5  2  0  0  0  0 
  5  6  1  0  0  0  0 
  6  7  2  0  0  0  0 
  2  7  1  0  0  0  0 
  5  8  1  0  0  0  0 
  8  9  2  0  0  0  0 
  8 10  2  0  0  0  0 
  8 11  1  0  0  0  0 
 11 12  1  0  0  0  0 
 12 13  2  0  0  0  0 
 13 14  1  0  0  0  0 
 14 15  2  0  0  0  0 
 15 16  1  0  0  0  0 
 16 17  2  0  0  0  0 
 12 17  1  0  0  0  0 
 15 18  1  0  0  0  0 
 18 19  2  0  0  0  0 
 18 20  1  4  0  0  0 
 20 21  2  0  0  0  0 
 21 22  1  0  0  0  0 
 22 23  2  0  0  0  0 
 23 24  1  0  0  0  0 
 24 25  2  0  0  0  0 
 25 26  1  0  0  0  0 
 26 27  2  0  0  0  0 
 22 27  1  0  0  0  0 
 27 28  1  0  0  0  0 
 25 29  1  0  0  0  0 
M  END
> <Rank>
7

> <Priority_score>
0.28

> <Reaction_type>
aromatic hydroxylation

> <Parent_ID>
1

> <Parent_InChI>
InChI=1S/C22H19NO4S/c1-16-2-13-21(14-3-16)28(26,27)23-19-9-7-18(8-10-19)22(25)15-6-17-4-11-20(24)12-5-17/h2-15,23-24H,1H3/b15-6+

> <Parent_SMILES>
C([H])([H])([H])C1=C([H])C([H])=C(C([H])=C1[H])S(=O)(=O)N([H])C2=C([H])C([H])=C(C([H])=C2[H])C(=O)/C(/[H])=C(\[H])/C3=C([H])C([H])=C(C([H])=C3[H])O[H]

$$$$

  CDK     1017240709

 29 31  0  0  0  0  0  0  0  0999 V2000
    2.5989    1.5002    0.0000 C   0  0  0  0  0  0  0  0  0  0  0  0
    1.3000    0.7500    0.0000 C   0  0  0  0  0  0  0  0  0  0  0  0
    0.0000    1.5000    0.0000 C   0  0  0  0  0  0  0  0  0  0  0  0
   -1.3000    0.7500    0.0000 C   0  0  0  0  0  0  0  0  0  0  0  0
   -1.3000   -0.7500    0.0000 C   0  0  0  0  0  0  0  0  0  0  0  0
    0.0000   -1.5000    0.0000 C   0  0  0  0  0  0  0  0  0  0  0  0
    1.3000   -0.7500    0.0000 C   0  0  0  0  0  0  0  0  0  0  0  0
   -2.5989   -1.5002    0.0000 S   0  0  0  0  0  0  0  0  0  0  0  0
   -3.5629   -2.6494    0.0000 O   0  0  0  0  0  0  0  0  0  0  0  0
   -1.6346   -2.6491    0.0000 O   0  0  0  0  0  0  0  0  0  0  0  0
   -3.8981   -0.7504    0.0000 N   0  0  0  0  0  0  0  0  0  0  0  0
   -5.1970   -1.5006    0.0000 C   0  0  0  0  0  0  0  0  0  0  0  0
   -5.1970   -3.0015    0.0000 C   0  0  0  0  0  0  0  0  0  0  0  0
   -6.4963   -3.7527    0.0000 C   0  0  0  0  0  0  0  0  0  0  0  0
   -7.7956   -3.0031    0.0000 C   0  0  0  0  0  0  0  0  0  0  0  0
   -7.7956   -1.5023    0.0000 C   0  0  0  0  0  0  0  0  0  0  0  0
   -6.4963   -0.7510    0.0000 C   0  0  0  0  0  0  0  0  0  0  0  0
   -9.0945   -3.7533    0.0000 C   0  0  0  0  0  0  0  0  0  0  0  0
   -9.0942   -5.2533    0.0000 O   0  0  0  0  0  0  0  0  0  0  0  0
  -10.3936   -3.0035    0.0000 C   0  0  0  0  0  0  0  0  0  0  0  0
  -11.6925   -3.7537    0.0000 C   0  0  0  0  0  0  0  0  0  0  0  0
  -12.9917   -3.0040    0.0000 C   0  0  0  0  0  0  0  0  0  0  0  0
  -14.2869   -3.7605    0.0000 C   0  0  0  0  0  0  0  0  0  0  0  0
  -15.5751   -3.0422    0.0000 C   0  0  0  0  0  0  0  0  0  0  0  0
  -15.6084   -1.4982    0.0000 C   0  0  0  0  0  0  0  0  0  0  0  0
  -14.3132   -0.7417    0.0000 C   0  0  0  0  0  0  0  0  0  0  0  0
  -12.9847   -1.5290    0.0000 C   0  0  0  0  0  0  0  0  0  0  0  0
  -16.9173   -0.7656    0.0000 O   0  0  0  0  0  0  0  0  0  0  0  0
   -3.8983    0.7496    0.0000 O   0  0  0  0  0  0  0  0  0  0  0  0
  1  2  1  0  0  0  0 
  2  3  2  0  0  0  0 
  3  4  1  0  0  0  0 
  4  5  2  0  0  0  0 
  5  6  1  0  0  0  0 
  6  7  2  0  0  0  0 
  2  7  1  0  0  0  0 
  5  8  1  0  0  0  0 
  8  9  2  0  0  0  0 
  8 10  2  0  0  0  0 
  8 11  1  0  0  0  0 
 11 12  1  0  0  0  0 
 12 13  2  0  0  0  0 
 13 14  1  0  0  0  0 
 14 15  2  0  0  0  0 
 15 16  1  0  0  0  0 
 16 17  2  0  0  0  0 
 12 17  1  0  0  0  0 
 15 18  1  0  0  0  0 
 18 19  2  0  0  0  0 
 18 20  1  4  0  0  0 
 20 21  2  0  0  0  0 
 21 22  1  0  0  0  0 
 22 23  2  0  0  0  0 
 23 24  1  0  0  0  0 
 24 25  2  0  0  0  0 
 25 26  1  0  0  0  0 
 26 27  2  0  0  0  0 
 22 27  1  0  0  0  0 
 25 28  1  0  0  0  0 
 11 29  1  0  0  0  0 
M  END
> <Rank>
8

> <Priority_score>
0.25

> <Reaction_type>
amine hydroxylation

> <Parent_ID>
1

> <Parent_InChI>
InChI=1S/C22H19NO4S/c1-16-2-13-21(14-3-16)28(26,27)23-19-9-7-18(8-10-19)22(25)15-6-17-4-11-20(24)12-5-17/h2-15,23-24H,1H3/b15-6+

> <Parent_SMILES>
C([H])([H])([H])C1=C([H])C([H])=C(C([H])=C1[H])S(=O)(=O)N([H])C2=C([H])C([H])=C(C([H])=C2[H])C(=O)/C(/[H])=C(\[H])/C3=C([H])C([H])=C(C([H])=C3[H])O[H]

$$$$

  CDK     1017240709

 29 31  0  0  0  0  0  0  0  0999 V2000
   -2.5989    1.5002    0.0000 C   0  0  0  0  0  0  0  0  0  0  0  0
   -1.3000    0.7500    0.0000 C   0  0  0  0  0  0  0  0  0  0  0  0
    0.0000    1.5000    0.0000 C   0  0  0  0  0  0  0  0  0  0  0  0
    1.3000    0.7500    0.0000 C   0  0  0  0  0  0  0  0  0  0  0  0
    1.3000   -0.7500    0.0000 C   0  0  0  0  0  0  0  0  0  0  0  0
    0.0000   -1.5000    0.0000 C   0  0  0  0  0  0  0  0  0  0  0  0
   -1.3000   -0.7500    0.0000 C   0  0  0  0  0  0  0  0  0  0  0  0
   -0.0000   -3.0000    0.0000 O   0  0  0  0  0  0  0  0  0  0  0  0
    2.5989   -1.5002    0.0000 S   0  0  0  0  0  0  0  0  0  0  0  0
    1.6346   -2.6491    0.0000 O   0  0  0  0  0  0  0  0  0  0  0  0
    3.5629   -2.6494    0.0000 O   0  0  0  0  0  0  0  0  0  0  0  0
    3.8981   -0.7504    0.0000 N   0  0  0  0  0  0  0  0  0  0  0  0
    5.1970   -1.5006    0.0000 C   0  0  0  0  0  0  0  0  0  0  0  0
    6.4970   -0.7506    0.0000 C   0  0  0  0  0  0  0  0  0  0  0  0
    7.7970   -1.5006    0.0000 C   0  0  0  0  0  0  0  0  0  0  0  0
    7.7970   -3.0006    0.0000 C   0  0  0  0  0  0  0  0  0  0  0  0
    6.4970   -3.7506    0.0000 C   0  0  0  0  0  0  0  0  0  0  0  0
    5.1970   -3.0006    0.0000 C   0  0  0  0  0  0  0  0  0  0  0  0
    9.0959   -3.7508    0.0000 C   0  0  0  0  0  0  0  0  0  0  0  0
    9.0957   -5.2508    0.0000 O   0  0  0  0  0  0  0  0  0  0  0  0
   10.3951   -3.0010    0.0000 C   0  0  0  0  0  0  0  0  0  0  0  0
   11.6940   -3.7512    0.0000 C   0  0  0  0  0  0  0  0  0  0  0  0
   12.9931   -3.0015    0.0000 C   0  0  0  0  0  0  0  0  0  0  0  0
   12.9860   -1.5015    0.0000 C   0  0  0  0  0  0  0  0  0  0  0  0
   14.2524   -0.7454    0.0000 C   0  0  0  0  0  0  0  0  0  0  0  0
   15.6060   -1.4890    0.0000 C   0  0  0  0  0  0  0  0  0  0  0  0
   15.6131   -2.9890    0.0000 C   0  0  0  0  0  0  0  0  0  0  0  0
   14.2667   -3.7454    0.0000 C   0  0  0  0  0  0  0  0  0  0  0  0
   16.8951   -0.7222    0.0000 O   0  0  0  0  0  0  0  0  0  0  0  0
  1  2  1  0  0  0  0 
  2  3  2  0  0  0  0 
  3  4  1  0  0  0  0 
  4  5  2  0  0  0  0 
  5  6  1  0  0  0  0 
  6  7  2  0  0  0  0 
  2  7  1  0  0  0  0 
  6  8  1  0  0  0  0 
  5  9  1  0  0  0  0 
  9 10  2  0  0  0  0 
  9 11  2  0  0  0  0 
  9 12  1  0  0  0  0 
 12 13  1  0  0  0  0 
 13 14  2  0  0  0  0 
 14 15  1  0  0  0  0 
 15 16  2  0  0  0  0 
 16 17  1  0  0  0  0 
 17 18  2  0  0  0  0 
 13 18  1  0  0  0  0 
 16 19  1  0  0  0  0 
 19 20  2  0  0  0  0 
 19 21  1  4  0  0  0 
 21 22  2  0  0  0  0 
 22 23  1  0  0  0  0 
 23 24  2  0  0  0  0 
 24 25  1  0  0  0  0 
 25 26  2  0  0  0  0 
 26 27  1  0  0  0  0 
 27 28  2  0  0  0  0 
 23 28  1  0  0  0  0 
 26 29  1  0  0  0  0 
M  END
> <Rank>
9

> <Priority_score>
0.22999999999999998

> <Reaction_type>
aromatic hydroxylation

> <Parent_ID>
1

> <Parent_InChI>
InChI=1S/C22H19NO4S/c1-16-2-13-21(14-3-16)28(26,27)23-19-9-7-18(8-10-19)22(25)15-6-17-4-11-20(24)12-5-17/h2-15,23-24H,1H3/b15-6+

> <Parent_SMILES>
C([H])([H])([H])C1=C([H])C([H])=C(C([H])=C1[H])S(=O)(=O)N([H])C2=C([H])C([H])=C(C([H])=C2[H])C(=O)/C(/[H])=C(\[H])/C3=C([H])C([H])=C(C([H])=C3[H])O[H]

$$$$

  CDK     1017240709

 29 31  0  0  0  0  0  0  0  0999 V2000
  -16.9173   -5.2533    0.0000 C   0  0  0  0  0  0  0  0  0  0  0  0
  -15.6184   -4.5031    0.0000 C   0  0  0  0  0  0  0  0  0  0  0  0
  -14.3184   -5.2531    0.0000 C   0  0  0  0  0  0  0  0  0  0  0  0
  -13.0184   -4.5031    0.0000 C   0  0  0  0  0  0  0  0  0  0  0  0
  -13.0184   -3.0031    0.0000 C   0  0  0  0  0  0  0  0  0  0  0  0
  -14.3184   -2.2531    0.0000 C   0  0  0  0  0  0  0  0  0  0  0  0
  -15.6184   -3.0031    0.0000 C   0  0  0  0  0  0  0  0  0  0  0  0
  -11.7195   -2.2529    0.0000 S   0  0  0  0  0  0  0  0  0  0  0  0
  -10.7555   -1.1037    0.0000 O   0  0  0  0  0  0  0  0  0  0  0  0
  -12.6839   -1.1040    0.0000 O   0  0  0  0  0  0  0  0  0  0  0  0
  -10.4204   -3.0027    0.0000 N   0  0  0  0  0  0  0  0  0  0  0  0
   -9.1214   -2.2525    0.0000 C   0  0  0  0  0  0  0  0  0  0  0  0
   -9.1214   -0.7517    0.0000 C   0  0  0  0  0  0  0  0  0  0  0  0
   -7.8222   -0.0004    0.0000 C   0  0  0  0  0  0  0  0  0  0  0  0
   -6.5229   -0.7500    0.0000 C   0  0  0  0  0  0  0  0  0  0  0  0
   -5.2240    0.0002    0.0000 C   0  0  0  0  0  0  0  0  0  0  0  0
   -5.2242    1.5002    0.0000 O   0  0  0  0  0  0  0  0  0  0  0  0
   -3.9248   -0.7496    0.0000 C   0  0  0  0  0  0  0  0  0  0  0  0
   -2.6259    0.0006    0.0000 C   0  0  0  0  0  0  0  0  0  0  0  0
   -1.3267   -0.7492    0.0000 C   0  0  0  0  0  0  0  0  0  0  0  0
   -0.0315    0.0074    0.0000 C   0  0  0  0  0  0  0  0  0  0  0  0
    1.2567   -0.7109    0.0000 C   0  0  0  0  0  0  0  0  0  0  0  0
    1.2900   -2.2549    0.0000 C   0  0  0  0  0  0  0  0  0  0  0  0
   -0.0052   -3.0115    0.0000 C   0  0  0  0  0  0  0  0  0  0  0  0
   -1.3338   -2.2241    0.0000 C   0  0  0  0  0  0  0  0  0  0  0  0
    2.5989   -2.9875    0.0000 O   0  0  0  0  0  0  0  0  0  0  0  0
   -6.5229   -2.2508    0.0000 C   0  0  0  0  0  0  0  0  0  0  0  0
   -7.8222   -3.0021    0.0000 C   0  0  0  0  0  0  0  0  0  0  0  0
   -5.2236   -3.0004    0.0000 O   0  0  0  0  0  0  0  0  0  0  0  0
  1  2  1  0  0  0  0 
  2  3  2  0  0  0  0 
  3  4  1  0  0  0  0 
  4  5  2  0  0  0  0 
  5  6  1  0  0  0  0 
  6  7  2  0  0  0  0 
  2  7  1  0  0  0  0 
  5  8  1  0  0  0  0 
  8  9  2  0  0  0  0 
  8 10  2  0  0  0  0 
  8 11  1  0  0  0  0 
 11 12  1  0  0  0  0 
 12 13  2  0  0  0  0 
 13 14  1  0  0  0  0 
 14 15  2  0  0  0  0 
 15 16  1  0  0  0  0 
 16 17  2  0  0  0  0 
 16 18  1  4  0  0  0 
 18 19  2  0  0  0  0 
 19 20  1  0  0  0  0 
 20 21  2  0  0  0  0 
 21 22  1  0  0  0  0 
 22 23  2  0  0  0  0 
 23 24  1  0  0  0  0 
 24 25  2  0  0  0  0 
 20 25  1  0  0  0  0 
 23 26  1  0  0  0  0 
 15 27  1  0  0  0  0 
 27 28  2  0  0  0  0 
 12 28  1  0  0  0  0 
 27 29  1  0  0  0  0 
M  END
> <Rank>
10

> <Priority_score>
0.21999999999999997

> <Reaction_type>
aromatic hydroxylation

> <Parent_ID>
1

> <Parent_InChI>
InChI=1S/C22H19NO4S/c1-16-2-13-21(14-3-16)28(26,27)23-19-9-7-18(8-10-19)22(25)15-6-17-4-11-20(24)12-5-17/h2-15,23-24H,1H3/b15-6+

> <Parent_SMILES>
C([H])([H])([H])C1=C([H])C([H])=C(C([H])=C1[H])S(=O)(=O)N([H])C2=C([H])C([H])=C(C([H])=C2[H])C(=O)/C(/[H])=C(\[H])/C3=C([H])C([H])=C(C([H])=C3[H])O[H]

$$$$

  CDK     1017240709

 29 31  0  0  0  0  0  0  0  0999 V2000
   -2.5989    1.5002    0.0000 C   0  0  0  0  0  0  0  0  0  0  0  0
   -1.3000    0.7500    0.0000 C   0  0  0  0  0  0  0  0  0  0  0  0
    0.0000    1.5000    0.0000 C   0  0  0  0  0  0  0  0  0  0  0  0
    1.3000    0.7500    0.0000 C   0  0  0  0  0  0  0  0  0  0  0  0
    1.3000   -0.7500    0.0000 C   0  0  0  0  0  0  0  0  0  0  0  0
    0.0000   -1.5000    0.0000 C   0  0  0  0  0  0  0  0  0  0  0  0
   -1.3000   -0.7500    0.0000 C   0  0  0  0  0  0  0  0  0  0  0  0
   -2.5989   -1.5002    0.0000 O   0  0  0  0  0  0  0  0  0  0  0  0
    2.5989   -1.5002    0.0000 S   0  0  0  0  0  0  0  0  0  0  0  0
    1.6346   -2.6491    0.0000 O   0  0  0  0  0  0  0  0  0  0  0  0
    3.5629   -2.6494    0.0000 O   0  0  0  0  0  0  0  0  0  0  0  0
    3.8981   -0.7504    0.0000 N   0  0  0  0  0  0  0  0  0  0  0  0
    5.1970   -1.5006    0.0000 C   0  0  0  0  0  0  0  0  0  0  0  0
    6.4970   -0.7506    0.0000 C   0  0  0  0  0  0  0  0  0  0  0  0
    7.7970   -1.5006    0.0000 C   0  0  0  0  0  0  0  0  0  0  0  0
    7.7970   -3.0006    0.0000 C   0  0  0  0  0  0  0  0  0  0  0  0
    6.4970   -3.7506    0.0000 C   0  0  0  0  0  0  0  0  0  0  0  0
    5.1970   -3.0006    0.0000 C   0  0  0  0  0  0  0  0  0  0  0  0
    9.0959   -3.7508    0.0000 C   0  0  0  0  0  0  0  0  0  0  0  0
    9.0957   -5.2508    0.0000 O   0  0  0  0  0  0  0  0  0  0  0  0
   10.3951   -3.0010    0.0000 C   0  0  0  0  0  0  0  0  0  0  0  0
   11.6940   -3.7512    0.0000 C   0  0  0  0  0  0  0  0  0  0  0  0
   12.9931   -3.0015    0.0000 C   0  0  0  0  0  0  0  0  0  0  0  0
   12.9860   -1.5015    0.0000 C   0  0  0  0  0  0  0  0  0  0  0  0
   14.2524   -0.7454    0.0000 C   0  0  0  0  0  0  0  0  0  0  0  0
   15.6060   -1.4890    0.0000 C   0  0  0  0  0  0  0  0  0  0  0  0
   15.6131   -2.9890    0.0000 C   0  0  0  0  0  0  0  0  0  0  0  0
   14.2667   -3.7454    0.0000 C   0  0  0  0  0  0  0  0  0  0  0  0
   16.8951   -0.7222    0.0000 O   0  0  0  0  0  0  0  0  0  0  0  0
  1  2  1  0  0  0  0 
  2  3  2  0  0  0  0 
  3  4  1  0  0  0  0 
  4  5  2  0  0  0  0 
  5  6  1  0  0  0  0 
  6  7  2  0  0  0  0 
  2  7  1  0  0  0  0 
  7  8  1  0  0  0  0 
  5  9  1  0  0  0  0 
  9 10  2  0  0  0  0 
  9 11  2  0  0  0  0 
  9 12  1  0  0  0  0 
 12 13  1  0  0  0  0 
 13 14  2  0  0  0  0 
 14 15  1  0  0  0  0 
 15 16  2  0  0  0  0 
 16 17  1  0  0  0  0 
 17 18  2  0  0  0  0 
 13 18  1  0  0  0  0 
 16 19  1  0  0  0  0 
 19 20  2  0  0  0  0 
 19 21  1  4  0  0  0 
 21 22  2  0  0  0  0 
 22 23  1  0  0  0  0 
 23 24  2  0  0  0  0 
 24 25  1  0  0  0  0 
 25 26  2  0  0  0  0 
 26 27  1  0  0  0  0 
 27 28  2  0  0  0  0 
 23 28  1  0  0  0  0 
 26 29  1  0  0  0  0 
M  END
> <Rank>
11

> <Priority_score>
0.14

> <Reaction_type>
aromatic hydroxylation

> <Parent_ID>
1

> <Parent_InChI>
InChI=1S/C22H19NO4S/c1-16-2-13-21(14-3-16)28(26,27)23-19-9-7-18(8-10-19)22(25)15-6-17-4-11-20(24)12-5-17/h2-15,23-24H,1H3/b15-6+

> <Parent_SMILES>
C([H])([H])([H])C1=C([H])C([H])=C(C([H])=C1[H])S(=O)(=O)N([H])C2=C([H])C([H])=C(C([H])=C2[H])C(=O)/C(/[H])=C(\[H])/C3=C([H])C([H])=C(C([H])=C3[H])O[H]

$$$$

  CDK     1017240709

 29 31  0  0  0  0  0  0  0  0999 V2000
    2.5989    1.5002    0.0000 C   0  0  0  0  0  0  0  0  0  0  0  0
    1.3000    0.7500    0.0000 C   0  0  0  0  0  0  0  0  0  0  0  0
    0.0000    1.5000    0.0000 C   0  0  0  0  0  0  0  0  0  0  0  0
   -1.3000    0.7500    0.0000 C   0  0  0  0  0  0  0  0  0  0  0  0
   -1.3000   -0.7500    0.0000 C   0  0  0  0  0  0  0  0  0  0  0  0
    0.0000   -1.5000    0.0000 C   0  0  0  0  0  0  0  0  0  0  0  0
    1.3000   -0.7500    0.0000 C   0  0  0  0  0  0  0  0  0  0  0  0
   -2.5989   -1.5002    0.0000 S   0  0  0  0  0  0  0  0  0  0  0  0
   -3.5629   -2.6494    0.0000 O   0  0  0  0  0  0  0  0  0  0  0  0
   -1.6346   -2.6491    0.0000 O   0  0  0  0  0  0  0  0  0  0  0  0
   -3.8981   -0.7504    0.0000 N   0  0  0  0  0  0  0  0  0  0  0  0
   -5.1970   -1.5006    0.0000 C   0  0  0  0  0  0  0  0  0  0  0  0
   -5.2135   -3.0029    0.0000 C   0  0  0  0  0  0  0  0  0  0  0  0
   -6.5099   -3.7575    0.0000 C   0  0  0  0  0  0  0  0  0  0  0  0
   -7.8070   -3.0199    0.0000 C   0  0  0  0  0  0  0  0  0  0  0  0
   -7.8179   -1.5104    0.0000 C   0  0  0  0  0  0  0  0  0  0  0  0
   -6.5215   -0.7558    0.0000 C   0  0  0  0  0  0  0  0  0  0  0  0
   -6.5326    0.7442    0.0000 O   0  0  0  0  0  0  0  0  0  0  0  0
   -9.1009   -3.7788    0.0000 C   0  0  0  0  0  0  0  0  0  0  0  0
   -9.0906   -5.2787    0.0000 O   0  0  0  0  0  0  0  0  0  0  0  0
  -10.4051   -3.0377    0.0000 C   0  0  0  0  0  0  0  0  0  0  0  0
  -11.6989   -3.7966    0.0000 C   0  0  0  0  0  0  0  0  0  0  0  0
  -13.0031   -3.0555    0.0000 C   0  0  0  0  0  0  0  0  0  0  0  0
  -14.2932   -3.8208    0.0000 C   0  0  0  0  0  0  0  0  0  0  0  0
  -15.5862   -3.1111    0.0000 C   0  0  0  0  0  0  0  0  0  0  0  0
  -15.6298   -1.5674    0.0000 C   0  0  0  0  0  0  0  0  0  0  0  0
  -14.3397   -0.8021    0.0000 C   0  0  0  0  0  0  0  0  0  0  0  0
  -13.0059   -1.5806    0.0000 C   0  0  0  0  0  0  0  0  0  0  0  0
  -16.9436   -0.8436    0.0000 O   0  0  0  0  0  0  0  0  0  0  0  0
  1  2  1  0  0  0  0 
  2  3  2  0  0  0  0 
  3  4  1  0  0  0  0 
  4  5  2  0  0  0  0 
  5  6  1  0  0  0  0 
  6  7  2  0  0  0  0 
  2  7  1  0  0  0  0 
  5  8  1  0  0  0  0 
  8  9  2  0  0  0  0 
  8 10  2  0  0  0  0 
  8 11  1  0  0  0  0 
 11 12  1  0  0  0  0 
 12 13  2  0  0  0  0 
 13 14  1  0  0  0  0 
 14 15  2  0  0  0  0 
 15 16  1  0  0  0  0 
 16 17  2  0  0  0  0 
 12 17  1  0  0  0  0 
 17 18  1  0  0  0  0 
 15 19  1  0  0  0  0 
 19 20  2  0  0  0  0 
 19 21  1  4  0  0  0 
 21 22  2  0  0  0  0 
 22 23  1  0  0  0  0 
 23 24  2  0  0  0  0 
 24 25  1  0  0  0  0 
 25 26  2  0  0  0  0 
 26 27  1  0  0  0  0 
 27 28  2  0  0  0  0 
 23 28  1  0  0  0  0 
 26 29  1  0  0  0  0 
M  END
> <Rank>
11

> <Priority_score>
0.14

> <Reaction_type>
aromatic hydroxylation

> <Parent_ID>
1

> <Parent_InChI>
InChI=1S/C22H19NO4S/c1-16-2-13-21(14-3-16)28(26,27)23-19-9-7-18(8-10-19)22(25)15-6-17-4-11-20(24)12-5-17/h2-15,23-24H,1H3/b15-6+

> <Parent_SMILES>
C([H])([H])([H])C1=C([H])C([H])=C(C([H])=C1[H])S(=O)(=O)N([H])C2=C([H])C([H])=C(C([H])=C2[H])C(=O)/C(/[H])=C(\[H])/C3=C([H])C([H])=C(C([H])=C3[H])O[H]

$$$$
