
  CDK     1017240942

  3  2  0  0  0  0  0  0  0  0999 V2000
   -0.2010   -0.7500    0.0000 C   0  0  0  0  0  0  0  0  0  0  0  0
    1.2990   -0.7500    0.0000 C   0  0  0  0  0  0  0  0  0  0  0  0
    2.7990   -0.7500    0.0000 O   0  0  0  0  0  0  0  0  0  0  0  0
  1  2  2  0  0  0  0 
  2  3  2  0  0  0  0 
M  END
> <Rank>
1

> <Priority_score>
3.2600000000000002

> <Reaction_type>
oxidative ether cleavage to one alcohol and one aldehyde/ketone

> <Parent_ID>
1

> <Parent_InChI>
InChI=1S/C3H5NO2/c1-2-6-3(4)5/h2H,1H2,(H2,4,5)

> <Parent_SMILES>
C([H])([H])=C([H])OC(=O)N([H])[H]

$$$$

  CDK     1017240942

  4  3  0  0  0  0  0  0  0  0999 V2000
    1.2990   -1.5000    0.0000 C   0  0  0  0  0  0  0  0  0  0  0  0
    2.5981   -2.2500    0.0000 O   0  0  0  0  0  0  0  0  0  0  0  0
   -0.0000   -2.2500    0.0000 N   0  0  0  0  0  0  0  0  0  0  0  0
    1.2990    0.0000    0.0000 O   0  0  0  0  0  0  0  0  0  0  0  0
  1  2  2  0  0  0  0 
  1  3  1  0  0  0  0 
  1  4  1  0  0  0  0 
M  END
> <Rank>
1

> <Priority_score>
3.2600000000000002

> <Reaction_type>
oxidative ether cleavage to one alcohol and one aldehyde/ketone

> <Parent_ID>
1

> <Parent_InChI>
InChI=1S/C3H5NO2/c1-2-6-3(4)5/h2H,1H2,(H2,4,5)

> <Parent_SMILES>
C([H])([H])=C([H])OC(=O)N([H])[H]

$$$$

  CDK     1017240942

  7  7  0  0  0  0  0  0  0  0999 V2000
   -3.0595    0.0690    0.0000 C   0  0  0  0  0  0  0  0  0  0  0  0
   -2.3095   -1.2300    0.0000 C   0  0  0  0  0  0  0  0  0  0  0  0
   -3.8103   -1.2305    0.0000 O   0  0  0  0  0  0  0  0  0  0  0  0
   -1.0103   -1.9798    0.0000 O   0  0  0  0  0  0  0  0  0  0  0  0
    0.2886   -1.2296    0.0000 C   0  0  0  0  0  0  0  0  0  0  0  0
    0.2883    0.2704    0.0000 O   0  0  0  0  0  0  0  0  0  0  0  0
    1.5877   -1.9794    0.0000 N   0  0  0  0  0  0  0  0  0  0  0  0
  1  2  1  0  0  0  0 
  2  3  1  0  0  0  0 
  1  3  1  0  0  0  0 
  2  4  1  0  0  0  0 
  4  5  1  0  0  0  0 
  5  6  2  0  0  0  0 
  5  7  1  0  0  0  0 
M  END
> <Rank>
1

> <Priority_score>
3.2600000000000002

> <Reaction_type>
epoxidation

> <Parent_ID>
1

> <Parent_InChI>
InChI=1S/C3H5NO2/c1-2-6-3(4)5/h2H,1H2,(H2,4,5)

> <Parent_SMILES>
C([H])([H])=C([H])OC(=O)N([H])[H]

$$$$

  CDK     1017240942

  7  6  0  0  0  0  0  0  0  0999 V2000
    0.0000    0.0000    0.0000 C   0  0  0  0  0  0  0  0  0  0  0  0
    1.2990   -0.7500    0.0000 C   0  0  0  0  0  0  0  0  0  0  0  0
    2.5981   -0.0000    0.0000 O   0  0  0  0  0  0  0  0  0  0  0  0
    3.8971   -0.7500    0.0000 C   0  0  0  0  0  0  0  0  0  0  0  0
    3.8971   -2.2500    0.0000 O   0  0  0  0  0  0  0  0  0  0  0  0
    5.1962   -0.0000    0.0000 N   0  0  0  0  0  0  0  0  0  0  0  0
    6.4952   -0.7500    0.0000 O   0  0  0  0  0  0  0  0  0  0  0  0
  1  2  2  0  0  0  0 
  2  3  1  0  0  0  0 
  3  4  1  0  0  0  0 
  4  5  2  0  0  0  0 
  4  6  1  0  0  0  0 
  6  7  1  0  0  0  0 
M  END
> <Rank>
4

> <Priority_score>
0.9099999999999999

> <Reaction_type>
amine hydroxylation

> <Parent_ID>
1

> <Parent_InChI>
InChI=1S/C3H5NO2/c1-2-6-3(4)5/h2H,1H2,(H2,4,5)

> <Parent_SMILES>
C([H])([H])=C([H])OC(=O)N([H])[H]

$$$$

  CDK     1017240942

  3  2  0  0  0  0  0  0  0  0999 V2000
    1.2990   -0.7500    0.0000 C   0  0  0  0  0  0  0  0  0  0  0  0
   -0.2010   -0.7500    0.0000 O   0  0  0  0  0  0  0  0  0  0  0  0
    2.7990   -0.7500    0.0000 O   0  0  0  0  0  0  0  0  0  0  0  0
  1  2  2  0  0  0  0 
  1  3  2  0  0  0  0 
M  END
> <Rank>
5

> <Priority_score>
0.652

> <Reaction_type>
carbamate cleavage

> <Parent_ID>
1

> <Parent_InChI>
InChI=1S/C3H5NO2/c1-2-6-3(4)5/h2H,1H2,(H2,4,5)

> <Parent_SMILES>
C([H])([H])=C([H])OC(=O)N([H])[H]

$$$$

  CDK     1017240942

  3  2  0  0  0  0  0  0  0  0999 V2000
    0.0000    0.0000    0.0000 C   0  0  0  0  0  0  0  0  0  0  0  0
    1.2990   -0.7500    0.0000 C   0  0  0  0  0  0  0  0  0  0  0  0
    2.5981   -0.0000    0.0000 O   0  0  0  0  0  0  0  0  0  0  0  0
  1  2  2  0  0  0  0 
  2  3  1  0  0  0  0 
M  END
> <Rank>
5

> <Priority_score>
0.652

> <Reaction_type>
carbamate cleavage

> <Parent_ID>
1

> <Parent_InChI>
InChI=1S/C3H5NO2/c1-2-6-3(4)5/h2H,1H2,(H2,4,5)

> <Parent_SMILES>
C([H])([H])=C([H])OC(=O)N([H])[H]

$$$$
