
  CDK     1017240548

  5  4  0  0  0  0  0  0  0  0999 V2000
    3.2476   -1.1250    0.0000 C   0  0  0  0  0  0  0  0  0  0  0  0
    1.9486   -1.8750    0.0000 C   0  0  0  0  0  0  0  0  0  0  0  0
    1.9486   -3.3750    0.0000 C   0  0  0  0  0  0  0  0  0  0  0  0
    0.6495   -1.1250    0.0000 C   0  0  0  0  0  0  0  0  0  0  0  0
   -0.6495   -1.8750    0.0000 O   0  0  0  0  0  0  0  0  0  0  0  0
  1  2  1  0  0  0  0 
  2  3  1  0  0  0  0 
  2  4  1  0  0  0  0 
  4  5  2  0  0  0  0 
M  END
> <Rank>
1

> <Priority_score>
2.04

> <Reaction_type>
oxidative ether cleavage to one alcohol and one aldehyde/ketone

> <Parent_ID>
1

> <Parent_InChI>
InChI=1S/C16H16N2O3S/c1-9(2)8-21-13-5-4-11(6-12(13)7-17)15-18-10(3)14(22-15)16(19)20/h4-6,9H,8H2,1-3H3,(H,19,20)

> <Parent_SMILES>
C([H])([H])([H])C([H])(C([H])([H])[H])C([H])([H])OC1=C(C([H])=C(C([H])=C1[H])C2=NC(=C(C(=O)O[H])S2)C([H])([H])[H])C#N

$$$$

  CDK     1017240548

 18 19  0  0  0  0  0  0  0  0999 V2000
   -3.1889    0.1011    0.0000 C   0  0  0  0  0  0  0  0  0  0  0  0
   -1.8184   -0.5084    0.0000 C   0  0  0  0  0  0  0  0  0  0  0  0
   -1.5067   -1.9682    0.0000 C   0  0  0  0  0  0  0  0  0  0  0  0
   -2.5132   -3.0804    0.0000 C   0  0  0  0  0  0  0  0  0  0  0  0
   -3.9796   -2.7648    0.0000 O   0  0  0  0  0  0  0  0  0  0  0  0
   -2.0532   -4.5081    0.0000 O   0  0  0  0  0  0  0  0  0  0  0  0
   -0.0138   -2.1339    0.0000 S   0  0  0  0  0  0  0  0  0  0  0  0
    0.5891   -0.7582    0.0000 C   0  0  0  0  0  0  0  0  0  0  0  0
   -0.5193    0.2416    0.0000 N   0  0  0  0  0  0  0  0  0  0  0  0
    2.0555   -0.4426    0.0000 C   0  0  0  0  0  0  0  0  0  0  0  0
    3.0621   -1.5547    0.0000 C   0  0  0  0  0  0  0  0  0  0  0  0
    4.5292   -1.2383    0.0000 C   0  0  0  0  0  0  0  0  0  0  0  0
    4.9897    0.1902    0.0000 C   0  0  0  0  0  0  0  0  0  0  0  0
    3.9831    1.3022    0.0000 C   0  0  0  0  0  0  0  0  0  0  0  0
    2.5160    0.9858    0.0000 C   0  0  0  0  0  0  0  0  0  0  0  0
    6.4561    0.5057    0.0000 O   0  0  0  0  0  0  0  0  0  0  0  0
    5.5359   -2.3503    0.0000 C   0  0  0  0  0  0  0  0  0  0  0  0
    6.5425   -3.4624    0.0000 N   0  0  0  0  0  0  0  0  0  0  0  0
  1  2  1  0  0  0  0 
  2  3  2  0  0  0  0 
  3  4  1  0  0  0  0 
  4  5  2  0  0  0  0 
  4  6  1  0  0  0  0 
  3  7  1  0  0  0  0 
  7  8  1  0  0  0  0 
  8  9  2  0  0  0  0 
  2  9  1  0  0  0  0 
  8 10  1  0  0  0  0 
 10 11  2  0  0  0  0 
 11 12  1  0  0  0  0 
 12 13  2  0  0  0  0 
 13 14  1  0  0  0  0 
 14 15  2  0  0  0  0 
 10 15  1  0  0  0  0 
 13 16  1  0  0  0  0 
 12 17  1  0  0  0  0 
 17 18  3  0  0  0  0 
M  END
> <Rank>
1

> <Priority_score>
2.04

> <Reaction_type>
oxidative ether cleavage to one alcohol and one aldehyde/ketone

> <Parent_ID>
1

> <Parent_InChI>
InChI=1S/C16H16N2O3S/c1-9(2)8-21-13-5-4-11(6-12(13)7-17)15-18-10(3)14(22-15)16(19)20/h4-6,9H,8H2,1-3H3,(H,19,20)

> <Parent_SMILES>
C([H])([H])([H])C([H])(C([H])([H])[H])C([H])([H])OC1=C(C([H])=C(C([H])=C1[H])C2=NC(=C(C(=O)O[H])S2)C([H])([H])[H])C#N

$$$$

  CDK     1017240548

 23 24  0  0  0  0  0  0  0  0999 V2000
   -2.2620   -6.2292    0.0000 C   0  0  0  0  0  0  0  0  0  0  0  0
   -1.8020   -4.8014    0.0000 C   0  0  0  0  0  0  0  0  0  0  0  0
   -2.8085   -3.6892    0.0000 C   0  0  0  0  0  0  0  0  0  0  0  0
   -0.3356   -4.4859    0.0000 C   0  0  0  0  0  0  0  0  0  0  0  0
    0.6709   -5.5981    0.0000 O   0  0  0  0  0  0  0  0  0  0  0  0
    0.1244   -3.0582    0.0000 O   0  0  0  0  0  0  0  0  0  0  0  0
    1.5908   -2.7427    0.0000 C   0  0  0  0  0  0  0  0  0  0  0  0
    2.0513   -1.3142    0.0000 C   0  0  0  0  0  0  0  0  0  0  0  0
    3.5184   -0.9978    0.0000 C   0  0  0  0  0  0  0  0  0  0  0  0
    4.5250   -2.1099    0.0000 C   0  0  0  0  0  0  0  0  0  0  0  0
    4.0646   -3.5383    0.0000 C   0  0  0  0  0  0  0  0  0  0  0  0
    2.5975   -3.8547    0.0000 C   0  0  0  0  0  0  0  0  0  0  0  0
    5.9915   -1.7944    0.0000 C   0  0  0  0  0  0  0  0  0  0  0  0
    7.0998   -2.7941    0.0000 N   0  0  0  0  0  0  0  0  0  0  0  0
    8.3989   -2.0441    0.0000 C   0  0  0  0  0  0  0  0  0  0  0  0
    8.0873   -0.5844    0.0000 C   0  0  0  0  0  0  0  0  0  0  0  0
    9.0937    0.5279    0.0000 C   0  0  0  0  0  0  0  0  0  0  0  0
    8.6338    1.9556    0.0000 O   0  0  0  0  0  0  0  0  0  0  0  0
   10.5602    0.2123    0.0000 O   0  0  0  0  0  0  0  0  0  0  0  0
    6.5944   -0.4186    0.0000 S   0  0  0  0  0  0  0  0  0  0  0  0
    9.7695   -2.6536    0.0000 C   0  0  0  0  0  0  0  0  0  0  0  0
    1.0446   -0.2022    0.0000 C   0  0  0  0  0  0  0  0  0  0  0  0
    0.0380    0.9099    0.0000 N   0  0  0  0  0  0  0  0  0  0  0  0
  1  2  1  0  0  0  0 
  2  3  1  0  0  0  0 
  2  4  1  0  0  0  0 
  4  5  1  0  0  0  0 
  4  6  1  0  0  0  0 
  6  7  1  0  0  0  0 
  7  8  2  0  0  0  0 
  8  9  1  0  0  0  0 
  9 10  2  0  0  0  0 
 10 11  1  0  0  0  0 
 11 12  2  0  0  0  0 
  7 12  1  0  0  0  0 
 10 13  1  0  0  0  0 
 13 14  2  0  0  0  0 
 14 15  1  0  0  0  0 
 15 16  2  0  0  0  0 
 16 17  1  0  0  0  0 
 17 18  2  0  0  0  0 
 17 19  1  0  0  0  0 
 16 20  1  0  0  0  0 
 13 20  1  0  0  0  0 
 15 21  1  0  0  0  0 
  8 22  1  0  0  0  0 
 22 23  3  0  0  0  0 
M  END
> <Rank>
1

> <Priority_score>
2.04

> <Reaction_type>
aliphatic hydroxylation

> <Parent_ID>
1

> <Parent_InChI>
InChI=1S/C16H16N2O3S/c1-9(2)8-21-13-5-4-11(6-12(13)7-17)15-18-10(3)14(22-15)16(19)20/h4-6,9H,8H2,1-3H3,(H,19,20)

> <Parent_SMILES>
C([H])([H])([H])C([H])(C([H])([H])[H])C([H])([H])OC1=C(C([H])=C(C([H])=C1[H])C2=NC(=C(C(=O)O[H])S2)C([H])([H])[H])C#N

$$$$

  CDK     1017240548

 23 24  0  0  0  0  0  0  0  0999 V2000
   -2.2620   -6.2292    0.0000 C   0  0  0  0  0  0  0  0  0  0  0  0
   -1.8020   -4.8014    0.0000 C   0  0  0  0  0  0  0  0  0  0  0  0
   -2.8085   -3.6892    0.0000 C   0  0  0  0  0  0  0  0  0  0  0  0
   -0.3356   -4.4859    0.0000 C   0  0  0  0  0  0  0  0  0  0  0  0
    0.1244   -3.0582    0.0000 O   0  0  0  0  0  0  0  0  0  0  0  0
    1.5908   -2.7427    0.0000 C   0  0  0  0  0  0  0  0  0  0  0  0
    2.0513   -1.3142    0.0000 C   0  0  0  0  0  0  0  0  0  0  0  0
    3.5184   -0.9978    0.0000 C   0  0  0  0  0  0  0  0  0  0  0  0
    4.5250   -2.1099    0.0000 C   0  0  0  0  0  0  0  0  0  0  0  0
    4.0646   -3.5383    0.0000 C   0  0  0  0  0  0  0  0  0  0  0  0
    2.5975   -3.8547    0.0000 C   0  0  0  0  0  0  0  0  0  0  0  0
    5.9915   -1.7944    0.0000 C   0  0  0  0  0  0  0  0  0  0  0  0
    7.0998   -2.7941    0.0000 N   0  0  0  0  0  0  0  0  0  0  0  0
    8.3989   -2.0441    0.0000 C   0  0  0  0  0  0  0  0  0  0  0  0
    8.0873   -0.5844    0.0000 C   0  0  0  0  0  0  0  0  0  0  0  0
    9.0937    0.5279    0.0000 C   0  0  0  0  0  0  0  0  0  0  0  0
    8.6338    1.9556    0.0000 O   0  0  0  0  0  0  0  0  0  0  0  0
   10.5602    0.2123    0.0000 O   0  0  0  0  0  0  0  0  0  0  0  0
    6.5944   -0.4186    0.0000 S   0  0  0  0  0  0  0  0  0  0  0  0
    5.8444    0.8804    0.0000 O   0  0  0  0  0  0  0  0  0  0  0  0
    9.7695   -2.6536    0.0000 C   0  0  0  0  0  0  0  0  0  0  0  0
    1.0446   -0.2022    0.0000 C   0  0  0  0  0  0  0  0  0  0  0  0
    0.0380    0.9099    0.0000 N   0  0  0  0  0  0  0  0  0  0  0  0
  1  2  1  0  0  0  0 
  2  3  1  0  0  0  0 
  2  4  1  0  0  0  0 
  4  5  1  0  0  0  0 
  5  6  1  0  0  0  0 
  6  7  2  0  0  0  0 
  7  8  1  0  0  0  0 
  8  9  2  0  0  0  0 
  9 10  1  0  0  0  0 
 10 11  2  0  0  0  0 
  6 11  1  0  0  0  0 
  9 12  1  0  0  0  0 
 12 13  2  0  0  0  0 
 13 14  1  0  0  0  0 
 14 15  2  0  0  0  0 
 15 16  1  0  0  0  0 
 16 17  2  0  0  0  0 
 16 18  1  0  0  0  0 
 15 19  1  0  0  0  0 
 12 19  1  0  0  0  0 
 19 20  2  0  0  0  0 
 14 21  1  0  0  0  0 
  7 22  1  0  0  0  0 
 22 23  3  0  0  0  0 
M  END
> <Rank>
4

> <Priority_score>
2.0100000000000002

> <Reaction_type>
S-oxidation

> <Parent_ID>
1

> <Parent_InChI>
InChI=1S/C16H16N2O3S/c1-9(2)8-21-13-5-4-11(6-12(13)7-17)15-18-10(3)14(22-15)16(19)20/h4-6,9H,8H2,1-3H3,(H,19,20)

> <Parent_SMILES>
C([H])([H])([H])C([H])(C([H])([H])[H])C([H])([H])OC1=C(C([H])=C(C([H])=C1[H])C2=NC(=C(C(=O)O[H])S2)C([H])([H])[H])C#N

$$$$

  CDK     1017240548

 23 24  0  0  0  0  0  0  0  0999 V2000
   -3.7499   -2.7895    0.0000 C   0  0  0  0  0  0  0  0  0  0  0  0
   -2.6377   -1.7830    0.0000 C   0  0  0  0  0  0  0  0  0  0  0  0
   -2.9533   -0.3166    0.0000 C   0  0  0  0  0  0  0  0  0  0  0  0
   -1.2100   -2.2430    0.0000 C   0  0  0  0  0  0  0  0  0  0  0  0
   -0.0978   -1.2365    0.0000 O   0  0  0  0  0  0  0  0  0  0  0  0
    1.3299   -1.6965    0.0000 C   0  0  0  0  0  0  0  0  0  0  0  0
    2.4429   -0.6896    0.0000 C   0  0  0  0  0  0  0  0  0  0  0  0
    3.8717   -1.1492    0.0000 C   0  0  0  0  0  0  0  0  0  0  0  0
    4.1874   -2.6156    0.0000 C   0  0  0  0  0  0  0  0  0  0  0  0
    3.0745   -3.6224    0.0000 C   0  0  0  0  0  0  0  0  0  0  0  0
    1.6457   -3.1629    0.0000 C   0  0  0  0  0  0  0  0  0  0  0  0
    5.6152   -3.0755    0.0000 C   0  0  0  0  0  0  0  0  0  0  0  0
    6.0752   -4.4955    0.0000 N   0  0  0  0  0  0  0  0  0  0  0  0
    7.5752   -4.4955    0.0000 C   0  0  0  0  0  0  0  0  0  0  0  0
    8.0352   -3.0755    0.0000 C   0  0  0  0  0  0  0  0  0  0  0  0
    9.4629   -2.6156    0.0000 C   0  0  0  0  0  0  0  0  0  0  0  0
    9.7784   -1.1491    0.0000 O   0  0  0  0  0  0  0  0  0  0  0  0
   10.5751   -3.6220    0.0000 O   0  0  0  0  0  0  0  0  0  0  0  0
    6.8252   -2.1855    0.0000 S   0  0  0  0  0  0  0  0  0  0  0  0
    8.4574   -5.7087    0.0000 C   0  0  0  0  0  0  0  0  0  0  0  0
    9.9491   -5.5512    0.0000 O   0  0  0  0  0  0  0  0  0  0  0  0
    2.1272    0.7767    0.0000 C   0  0  0  0  0  0  0  0  0  0  0  0
    1.8114    2.2431    0.0000 N   0  0  0  0  0  0  0  0  0  0  0  0
  1  2  1  0  0  0  0 
  2  3  1  0  0  0  0 
  2  4  1  0  0  0  0 
  4  5  1  0  0  0  0 
  5  6  1  0  0  0  0 
  6  7  2  0  0  0  0 
  7  8  1  0  0  0  0 
  8  9  2  0  0  0  0 
  9 10  1  0  0  0  0 
 10 11  2  0  0  0  0 
  6 11  1  0  0  0  0 
  9 12  1  0  0  0  0 
 12 13  2  0  0  0  0 
 13 14  1  0  0  0  0 
 14 15  2  0  0  0  0 
 15 16  1  0  0  0  0 
 16 17  2  0  0  0  0 
 16 18  1  0  0  0  0 
 15 19  1  0  0  0  0 
 12 19  1  0  0  0  0 
 14 20  1  0  0  0  0 
 20 21  1  0  0  0  0 
  7 22  1  0  0  0  0 
 22 23  3  0  0  0  0 
M  END
> <Rank>
5

> <Priority_score>
1.6300000000000001

> <Reaction_type>
aliphatic hydroxylation

> <Parent_ID>
1

> <Parent_InChI>
InChI=1S/C16H16N2O3S/c1-9(2)8-21-13-5-4-11(6-12(13)7-17)15-18-10(3)14(22-15)16(19)20/h4-6,9H,8H2,1-3H3,(H,19,20)

> <Parent_SMILES>
C([H])([H])([H])C([H])(C([H])([H])[H])C([H])([H])OC1=C(C([H])=C(C([H])=C1[H])C2=NC(=C(C(=O)O[H])S2)C([H])([H])[H])C#N

$$$$

  CDK     1017240548

 23 24  0  0  0  0  0  0  0  0999 V2000
   -1.4764   -3.3323    0.0000 C   0  0  0  0  0  0  0  0  0  0  0  0
   -0.4699   -4.4445    0.0000 C   0  0  0  0  0  0  0  0  0  0  0  0
   -0.9299   -5.8722    0.0000 C   0  0  0  0  0  0  0  0  0  0  0  0
   -2.3963   -6.1878    0.0000 O   0  0  0  0  0  0  0  0  0  0  0  0
    0.9965   -4.1290    0.0000 C   0  0  0  0  0  0  0  0  0  0  0  0
    1.4565   -2.7013    0.0000 O   0  0  0  0  0  0  0  0  0  0  0  0
    2.9229   -2.3857    0.0000 C   0  0  0  0  0  0  0  0  0  0  0  0
    3.3834   -0.9573    0.0000 C   0  0  0  0  0  0  0  0  0  0  0  0
    4.8505   -0.6409    0.0000 C   0  0  0  0  0  0  0  0  0  0  0  0
    5.8571   -1.7529    0.0000 C   0  0  0  0  0  0  0  0  0  0  0  0
    5.3967   -3.1814    0.0000 C   0  0  0  0  0  0  0  0  0  0  0  0
    3.9296   -3.4978    0.0000 C   0  0  0  0  0  0  0  0  0  0  0  0
    7.3236   -1.4374    0.0000 C   0  0  0  0  0  0  0  0  0  0  0  0
    8.4319   -2.4372    0.0000 N   0  0  0  0  0  0  0  0  0  0  0  0
    9.7310   -1.6872    0.0000 C   0  0  0  0  0  0  0  0  0  0  0  0
    9.4194   -0.2274    0.0000 C   0  0  0  0  0  0  0  0  0  0  0  0
   10.4258    0.8848    0.0000 C   0  0  0  0  0  0  0  0  0  0  0  0
    9.9658    2.3125    0.0000 O   0  0  0  0  0  0  0  0  0  0  0  0
   11.8923    0.5693    0.0000 O   0  0  0  0  0  0  0  0  0  0  0  0
    7.9265   -0.0617    0.0000 S   0  0  0  0  0  0  0  0  0  0  0  0
   11.1016   -2.2967    0.0000 C   0  0  0  0  0  0  0  0  0  0  0  0
    2.3767    0.1548    0.0000 C   0  0  0  0  0  0  0  0  0  0  0  0
    1.3701    1.2668    0.0000 N   0  0  0  0  0  0  0  0  0  0  0  0
  1  2  1  0  0  0  0 
  2  3  1  0  0  0  0 
  3  4  1  0  0  0  0 
  2  5  1  0  0  0  0 
  5  6  1  0  0  0  0 
  6  7  1  0  0  0  0 
  7  8  2  0  0  0  0 
  8  9  1  0  0  0  0 
  9 10  2  0  0  0  0 
 10 11  1  0  0  0  0 
 11 12  2  0  0  0  0 
  7 12  1  0  0  0  0 
 10 13  1  0  0  0  0 
 13 14  2  0  0  0  0 
 14 15  1  0  0  0  0 
 15 16  2  0  0  0  0 
 16 17  1  0  0  0  0 
 17 18  2  0  0  0  0 
 17 19  1  0  0  0  0 
 16 20  1  0  0  0  0 
 13 20  1  0  0  0  0 
 15 21  1  0  0  0  0 
  8 22  1  0  0  0  0 
 22 23  3  0  0  0  0 
M  END
> <Rank>
6

> <Priority_score>
1.27

> <Reaction_type>
aliphatic hydroxylation

> <Parent_ID>
1

> <Parent_InChI>
InChI=1S/C16H16N2O3S/c1-9(2)8-21-13-5-4-11(6-12(13)7-17)15-18-10(3)14(22-15)16(19)20/h4-6,9H,8H2,1-3H3,(H,19,20)

> <Parent_SMILES>
C([H])([H])([H])C([H])(C([H])([H])[H])C([H])([H])OC1=C(C([H])=C(C([H])=C1[H])C2=NC(=C(C(=O)O[H])S2)C([H])([H])[H])C#N

$$$$

  CDK     1017240548

 23 24  0  0  0  0  0  0  0  0999 V2000
    9.8367   -2.6356    0.0000 C   0  0  0  0  0  0  0  0  0  0  0  0
    8.4662   -2.0261    0.0000 C   0  0  0  0  0  0  0  0  0  0  0  0
    8.1545   -0.5663    0.0000 C   0  0  0  0  0  0  0  0  0  0  0  0
    9.1610    0.5459    0.0000 C   0  0  0  0  0  0  0  0  0  0  0  0
   10.6274    0.2304    0.0000 O   0  0  0  0  0  0  0  0  0  0  0  0
    8.7010    1.9736    0.0000 O   0  0  0  0  0  0  0  0  0  0  0  0
    6.6616   -0.4006    0.0000 S   0  0  0  0  0  0  0  0  0  0  0  0
    6.0587   -1.7763    0.0000 C   0  0  0  0  0  0  0  0  0  0  0  0
    7.1671   -2.7761    0.0000 N   0  0  0  0  0  0  0  0  0  0  0  0
    4.5923   -2.0919    0.0000 C   0  0  0  0  0  0  0  0  0  0  0  0
    3.5857   -0.9798    0.0000 C   0  0  0  0  0  0  0  0  0  0  0  0
    2.1186   -1.2962    0.0000 C   0  0  0  0  0  0  0  0  0  0  0  0
    1.6581   -2.7246    0.0000 C   0  0  0  0  0  0  0  0  0  0  0  0
    2.6647   -3.8367    0.0000 C   0  0  0  0  0  0  0  0  0  0  0  0
    4.1318   -3.5203    0.0000 C   0  0  0  0  0  0  0  0  0  0  0  0
    0.1917   -3.0402    0.0000 O   0  0  0  0  0  0  0  0  0  0  0  0
   -0.2683   -4.4679    0.0000 C   0  0  0  0  0  0  0  0  0  0  0  0
   -1.7348   -4.7834    0.0000 C   0  0  0  0  0  0  0  0  0  0  0  0
   -2.1947   -6.2112    0.0000 C   0  0  0  0  0  0  0  0  0  0  0  0
   -1.7908   -3.2845    0.0000 C   0  0  0  0  0  0  0  0  0  0  0  0
   -3.2207   -4.5784    0.0000 O   0  0  0  0  0  0  0  0  0  0  0  0
    1.1119   -0.1841    0.0000 C   0  0  0  0  0  0  0  0  0  0  0  0
    0.1053    0.9279    0.0000 N   0  0  0  0  0  0  0  0  0  0  0  0
  1  2  1  0  0  0  0 
  2  3  2  0  0  0  0 
  3  4  1  0  0  0  0 
  4  5  2  0  0  0  0 
  4  6  1  0  0  0  0 
  3  7  1  0  0  0  0 
  7  8  1  0  0  0  0 
  8  9  2  0  0  0  0 
  2  9  1  0  0  0  0 
  8 10  1  0  0  0  0 
 10 11  2  0  0  0  0 
 11 12  1  0  0  0  0 
 12 13  2  0  0  0  0 
 13 14  1  0  0  0  0 
 14 15  2  0  0  0  0 
 10 15  1  0  0  0  0 
 13 16  1  0  0  0  0 
 16 17  1  0  0  0  0 
 17 18  1  0  0  0  0 
 18 19  1  0  0  0  0 
 18 20  1  0  0  0  0 
 18 21  1  0  0  0  0 
 12 22  1  0  0  0  0 
 22 23  3  0  0  0  0 
M  END
> <Rank>
7

> <Priority_score>
0.8400000000000001

> <Reaction_type>
aliphatic hydroxylation

> <Parent_ID>
1

> <Parent_InChI>
InChI=1S/C16H16N2O3S/c1-9(2)8-21-13-5-4-11(6-12(13)7-17)15-18-10(3)14(22-15)16(19)20/h4-6,9H,8H2,1-3H3,(H,19,20)

> <Parent_SMILES>
C([H])([H])([H])C([H])(C([H])([H])[H])C([H])([H])OC1=C(C([H])=C(C([H])=C1[H])C2=NC(=C(C(=O)O[H])S2)C([H])([H])[H])C#N

$$$$

  CDK     1017240548

 23 24  0  0  0  0  0  0  0  0999 V2000
   -4.0983   -1.3485    0.0000 C   0  0  0  0  0  0  0  0  0  0  0  0
   -3.0918   -2.4607    0.0000 C   0  0  0  0  0  0  0  0  0  0  0  0
   -3.5518   -3.8884    0.0000 C   0  0  0  0  0  0  0  0  0  0  0  0
   -1.6254   -2.1452    0.0000 C   0  0  0  0  0  0  0  0  0  0  0  0
   -0.6189   -3.2574    0.0000 O   0  0  0  0  0  0  0  0  0  0  0  0
    0.8475   -2.9418    0.0000 C   0  0  0  0  0  0  0  0  0  0  0  0
    1.3080   -1.5134    0.0000 C   0  0  0  0  0  0  0  0  0  0  0  0
    2.7751   -1.1970    0.0000 C   0  0  0  0  0  0  0  0  0  0  0  0
    3.7817   -2.3090    0.0000 C   0  0  0  0  0  0  0  0  0  0  0  0
    3.3213   -3.7375    0.0000 C   0  0  0  0  0  0  0  0  0  0  0  0
    1.8541   -4.0539    0.0000 C   0  0  0  0  0  0  0  0  0  0  0  0
    5.2481   -1.9935    0.0000 C   0  0  0  0  0  0  0  0  0  0  0  0
    6.3565   -2.9933    0.0000 N   0  0  0  0  0  0  0  0  0  0  0  0
    7.6556   -2.2433    0.0000 C   0  0  0  0  0  0  0  0  0  0  0  0
    7.3439   -0.7835    0.0000 C   0  0  0  0  0  0  0  0  0  0  0  0
    8.3504    0.3287    0.0000 C   0  0  0  0  0  0  0  0  0  0  0  0
    7.8904    1.7564    0.0000 O   0  0  0  0  0  0  0  0  0  0  0  0
    9.8168    0.0132    0.0000 O   0  0  0  0  0  0  0  0  0  0  0  0
    5.8510   -0.6178    0.0000 S   0  0  0  0  0  0  0  0  0  0  0  0
    9.0261   -2.8528    0.0000 C   0  0  0  0  0  0  0  0  0  0  0  0
    6.1991   -4.4850    0.0000 O   0  0  0  0  0  0  0  0  0  0  0  0
    0.3013   -0.4013    0.0000 C   0  0  0  0  0  0  0  0  0  0  0  0
   -0.7053    0.7107    0.0000 N   0  0  0  0  0  0  0  0  0  0  0  0
  1  2  1  0  0  0  0 
  2  3  1  0  0  0  0 
  2  4  1  0  0  0  0 
  4  5  1  0  0  0  0 
  5  6  1  0  0  0  0 
  6  7  2  0  0  0  0 
  7  8  1  0  0  0  0 
  8  9  2  0  0  0  0 
  9 10  1  0  0  0  0 
 10 11  2  0  0  0  0 
  6 11  1  0  0  0  0 
  9 12  1  0  0  0  0 
 12 13  2  0  0  0  0 
 13 14  1  0  0  0  0 
 14 15  2  0  0  0  0 
 15 16  1  0  0  0  0 
 16 17  2  0  0  0  0 
 16 18  1  0  0  0  0 
 15 19  1  0  0  0  0 
 12 19  1  0  0  0  0 
 14 20  1  0  0  0  0 
 13 21  1  0  0  0  0 
  7 22  1  0  0  0  0 
 22 23  3  0  0  0  0 
M  CHG  1  13   1
M  CHG  1  21  -1
M  END
> <Rank>
8

> <Priority_score>
0.5700000000000001

> <Reaction_type>
N-oxidation

> <Parent_ID>
1

> <Parent_InChI>
InChI=1S/C16H16N2O3S/c1-9(2)8-21-13-5-4-11(6-12(13)7-17)15-18-10(3)14(22-15)16(19)20/h4-6,9H,8H2,1-3H3,(H,19,20)

> <Parent_SMILES>
C([H])([H])([H])C([H])(C([H])([H])[H])C([H])([H])OC1=C(C([H])=C(C([H])=C1[H])C2=NC(=C(C(=O)O[H])S2)C([H])([H])[H])C#N

$$$$

  CDK     1017240548

 10 10  0  0  0  0  0  0  0  0999 V2000
    2.9579   -2.0457    0.0000 C   0  0  0  0  0  0  0  0  0  0  0  0
    1.6589   -2.7957    0.0000 C   0  0  0  0  0  0  0  0  0  0  0  0
    0.3593   -2.0449    0.0000 C   0  0  0  0  0  0  0  0  0  0  0  0
   -0.9397   -2.7949    0.0000 O   0  0  0  0  0  0  0  0  0  0  0  0
    0.3589   -0.5441    0.0000 C   0  0  0  0  0  0  0  0  0  0  0  0
    1.6579    0.2059    0.0000 C   0  0  0  0  0  0  0  0  0  0  0  0
    2.9574   -0.5449    0.0000 C   0  0  0  0  0  0  0  0  0  0  0  0
    4.2565    0.2051    0.0000 O   0  0  0  0  0  0  0  0  0  0  0  0
   -0.9403    0.2057    0.0000 C   0  0  0  0  0  0  0  0  0  0  0  0
   -2.2395    0.9555    0.0000 N   0  0  0  0  0  0  0  0  0  0  0  0
  1  2  2  0  0  0  0 
  2  3  1  0  0  0  0 
  3  4  2  0  0  0  0 
  3  5  1  0  0  0  0 
  5  6  2  0  0  0  0 
  6  7  1  0  0  0  0 
  1  7  1  0  0  0  0 
  7  8  2  0  0  0  0 
  5  9  1  0  0  0  0 
  9 10  3  0  0  0  0 
M  END
> <Rank>
9

> <Priority_score>
0.408

> <Reaction_type>
oxidation of 4-substituted anisole to quinone

> <Parent_ID>
1

> <Parent_InChI>
InChI=1S/C16H16N2O3S/c1-9(2)8-21-13-5-4-11(6-12(13)7-17)15-18-10(3)14(22-15)16(19)20/h4-6,9H,8H2,1-3H3,(H,19,20)

> <Parent_SMILES>
C([H])([H])([H])C([H])(C([H])([H])[H])C([H])([H])OC1=C(C([H])=C(C([H])=C1[H])C2=NC(=C(C(=O)O[H])S2)C([H])([H])[H])C#N

$$$$

  CDK     1017240548

  9  9  0  0  0  0  0  0  0  0999 V2000
   -2.3914   -2.6039    0.0000 C   0  0  0  0  0  0  0  0  0  0  0  0
   -1.9164   -1.1811    0.0000 C   0  0  0  0  0  0  0  0  0  0  0  0
   -0.4864   -0.7411    0.0000 C   0  0  0  0  0  0  0  0  0  0  0  0
    0.7082   -1.6483    0.0000 C   0  0  0  0  0  0  0  0  0  0  0  0
    0.5199   -3.1364    0.0000 O   0  0  0  0  0  0  0  0  0  0  0  0
    2.0911   -1.0673    0.0000 O   0  0  0  0  0  0  0  0  0  0  0  0
   -0.4464    0.7589    0.0000 S   0  0  0  0  0  0  0  0  0  0  0  0
   -1.8664    1.2289    0.0000 C   0  0  0  0  0  0  0  0  0  0  0  0
   -2.8164    0.0589    0.0000 N   0  0  0  0  0  0  0  0  0  0  0  0
  1  2  1  0  0  0  0 
  2  3  2  0  0  0  0 
  3  4  1  0  0  0  0 
  4  5  2  0  0  0  0 
  4  6  1  0  0  0  0 
  3  7  1  0  0  0  0 
  7  8  1  0  0  0  0 
  8  9  2  0  0  0  0 
  2  9  1  0  0  0  0 
M  END
> <Rank>
9

> <Priority_score>
0.408

> <Reaction_type>
oxidation of 4-substituted anisole to quinone

> <Parent_ID>
1

> <Parent_InChI>
InChI=1S/C16H16N2O3S/c1-9(2)8-21-13-5-4-11(6-12(13)7-17)15-18-10(3)14(22-15)16(19)20/h4-6,9H,8H2,1-3H3,(H,19,20)

> <Parent_SMILES>
C([H])([H])([H])C([H])(C([H])([H])[H])C([H])([H])OC1=C(C([H])=C(C([H])=C1[H])C2=NC(=C(C(=O)O[H])S2)C([H])([H])[H])C#N

$$$$

  CDK     1017240548

  4  3  0  0  0  0  0  0  0  0999 V2000
    2.5981   -2.2500    0.0000 C   0  0  0  0  0  0  0  0  0  0  0  0
    1.2990   -1.5000    0.0000 C   0  0  0  0  0  0  0  0  0  0  0  0
   -0.0000   -2.2500    0.0000 C   0  0  0  0  0  0  0  0  0  0  0  0
    1.2990    0.0000    0.0000 C   0  0  0  0  0  0  0  0  0  0  0  0
  1  2  1  0  0  0  0 
  2  3  1  0  0  0  0 
  2  4  1  0  0  0  0 
M  END
> <Rank>
9

> <Priority_score>
0.408

> <Reaction_type>
oxidation of 4-substituted anisole to quinone

> <Parent_ID>
1

> <Parent_InChI>
InChI=1S/C16H16N2O3S/c1-9(2)8-21-13-5-4-11(6-12(13)7-17)15-18-10(3)14(22-15)16(19)20/h4-6,9H,8H2,1-3H3,(H,19,20)

> <Parent_SMILES>
C([H])([H])([H])C([H])(C([H])([H])[H])C([H])([H])OC1=C(C([H])=C(C([H])=C1[H])C2=NC(=C(C(=O)O[H])S2)C([H])([H])[H])C#N

$$$$

  CDK     1017240548

 22 23  0  0  0  0  0  0  0  0999 V2000
   -2.2620   -6.2292    0.0000 C   0  0  0  0  0  0  0  0  0  0  0  0
   -1.8020   -4.8014    0.0000 C   0  0  0  0  0  0  0  0  0  0  0  0
   -0.3356   -4.4859    0.0000 C   0  0  0  0  0  0  0  0  0  0  0  0
    0.1244   -3.0582    0.0000 O   0  0  0  0  0  0  0  0  0  0  0  0
    1.5908   -2.7427    0.0000 C   0  0  0  0  0  0  0  0  0  0  0  0
    2.0513   -1.3142    0.0000 C   0  0  0  0  0  0  0  0  0  0  0  0
    3.5184   -0.9978    0.0000 C   0  0  0  0  0  0  0  0  0  0  0  0
    4.5250   -2.1099    0.0000 C   0  0  0  0  0  0  0  0  0  0  0  0
    4.0646   -3.5383    0.0000 C   0  0  0  0  0  0  0  0  0  0  0  0
    2.5975   -3.8547    0.0000 C   0  0  0  0  0  0  0  0  0  0  0  0
    5.9915   -1.7944    0.0000 C   0  0  0  0  0  0  0  0  0  0  0  0
    7.0998   -2.7941    0.0000 N   0  0  0  0  0  0  0  0  0  0  0  0
    8.3989   -2.0441    0.0000 C   0  0  0  0  0  0  0  0  0  0  0  0
    8.0873   -0.5844    0.0000 C   0  0  0  0  0  0  0  0  0  0  0  0
    9.0937    0.5279    0.0000 C   0  0  0  0  0  0  0  0  0  0  0  0
    8.6338    1.9556    0.0000 O   0  0  0  0  0  0  0  0  0  0  0  0
   10.5602    0.2123    0.0000 O   0  0  0  0  0  0  0  0  0  0  0  0
    6.5944   -0.4186    0.0000 S   0  0  0  0  0  0  0  0  0  0  0  0
    9.7695   -2.6536    0.0000 C   0  0  0  0  0  0  0  0  0  0  0  0
    1.0446   -0.2022    0.0000 C   0  0  0  0  0  0  0  0  0  0  0  0
    0.0380    0.9099    0.0000 N   0  0  0  0  0  0  0  0  0  0  0  0
   -2.8085   -3.6892    0.0000 C   0  0  0  0  0  0  0  0  0  0  0  0
  1  2  1  0  0  0  0 
  2  3  2  0  0  0  0 
  3  4  1  0  0  0  0 
  4  5  1  0  0  0  0 
  5  6  2  0  0  0  0 
  6  7  1  0  0  0  0 
  7  8  2  0  0  0  0 
  8  9  1  0  0  0  0 
  9 10  2  0  0  0  0 
  5 10  1  0  0  0  0 
  8 11  1  0  0  0  0 
 11 12  2  0  0  0  0 
 12 13  1  0  0  0  0 
 13 14  2  0  0  0  0 
 14 15  1  0  0  0  0 
 15 16  2  0  0  0  0 
 15 17  1  0  0  0  0 
 14 18  1  0  0  0  0 
 11 18  1  0  0  0  0 
 13 19  1  0  0  0  0 
  6 20  1  0  0  0  0 
 20 21  3  0  0  0  0 
  2 22  1  0  0  0  0 
M  END
> <Rank>
9

> <Priority_score>
0.408

> <Reaction_type>
alkyl dehydrogenation

> <Parent_ID>
1

> <Parent_InChI>
InChI=1S/C16H16N2O3S/c1-9(2)8-21-13-5-4-11(6-12(13)7-17)15-18-10(3)14(22-15)16(19)20/h4-6,9H,8H2,1-3H3,(H,19,20)

> <Parent_SMILES>
C([H])([H])([H])C([H])(C([H])([H])[H])C([H])([H])OC1=C(C([H])=C(C([H])=C1[H])C2=NC(=C(C(=O)O[H])S2)C([H])([H])[H])C#N

$$$$

  CDK     1017240548

 22 24  0  0  0  0  0  0  0  0999 V2000
  -11.3117   -2.5995    0.0000 C   0  0  0  0  0  0  0  0  0  0  0  0
  -10.5617   -1.3005    0.0000 C   0  0  0  0  0  0  0  0  0  0  0  0
  -11.3117   -0.0014    0.0000 C   0  0  0  0  0  0  0  0  0  0  0  0
   -9.0617   -1.3005    0.0000 C   0  0  0  0  0  0  0  0  0  0  0  0
   -8.3117   -0.0014    0.0000 O   0  0  0  0  0  0  0  0  0  0  0  0
   -6.8117   -0.0014    0.0000 C   0  0  0  0  0  0  0  0  0  0  0  0
   -6.0610    1.2982    0.0000 C   0  0  0  0  0  0  0  0  0  0  0  0
   -4.5602    1.2989    0.0000 C   0  0  0  0  0  0  0  0  0  0  0  0
   -3.8100   -0.0000    0.0000 C   0  0  0  0  0  0  0  0  0  0  0  0
   -4.5606   -1.2996    0.0000 C   0  0  0  0  0  0  0  0  0  0  0  0
   -6.0615   -1.3004    0.0000 C   0  0  0  0  0  0  0  0  0  0  0  0
   -2.3100    0.0000    0.0000 C   0  0  0  0  0  0  0  0  0  0  0  0
   -1.4300   -1.2100    0.0000 N   0  0  0  0  0  0  0  0  0  0  0  0
    0.0000   -0.7500    0.0000 C   0  0  0  0  0  0  0  0  0  0  0  0
    0.0000    0.7500    0.0000 C   0  0  0  0  0  0  0  0  0  0  0  0
    1.4300    1.2100    0.0000 C   0  0  0  0  0  0  0  0  0  0  0  0
    1.8953    2.6360    0.0000 O   0  0  0  0  0  0  0  0  0  0  0  0
    2.3100    0.0000    0.0000 O   0  0  0  0  0  0  0  0  0  0  0  0
    1.4300   -1.2100    0.0000 C   0  0  0  0  0  0  0  0  0  0  0  0
   -1.4300    1.2100    0.0000 S   0  0  0  0  0  0  0  0  0  0  0  0
   -6.8112    2.5971    0.0000 C   0  0  0  0  0  0  0  0  0  0  0  0
   -7.5615    3.8960    0.0000 N   0  0  0  0  0  0  0  0  0  0  0  0
  1  2  1  0  0  0  0 
  2  3  1  0  0  0  0 
  2  4  1  0  0  0  0 
  4  5  1  0  0  0  0 
  5  6  1  0  0  0  0 
  6  7  2  0  0  0  0 
  7  8  1  0  0  0  0 
  8  9  2  0  0  0  0 
  9 10  1  0  0  0  0 
 10 11  2  0  0  0  0 
  6 11  1  0  0  0  0 
  9 12  1  0  0  0  0 
 12 13  2  0  0  0  0 
 13 14  1  0  0  0  0 
 14 15  2  0  0  0  0 
 15 16  1  0  0  0  0 
 16 17  2  0  0  0  0 
 16 18  1  0  0  0  0 
 18 19  1  0  0  0  0 
 14 19  1  0  0  0  0 
 15 20  1  0  0  0  0 
 12 20  1  0  0  0  0 
  7 21  1  0  0  0  0 
 21 22  3  0  0  0  0 
M  END
> <Rank>
13

> <Priority_score>
0.326

> <Reaction_type>
cyclization to 5-membered lactone

> <Parent_ID>
1

> <Parent_InChI>
InChI=1S/C16H16N2O3S/c1-9(2)8-21-13-5-4-11(6-12(13)7-17)15-18-10(3)14(22-15)16(19)20/h4-6,9H,8H2,1-3H3,(H,19,20)

> <Parent_SMILES>
C([H])([H])([H])C([H])(C([H])([H])[H])C([H])([H])OC1=C(C([H])=C(C([H])=C1[H])C2=NC(=C(C(=O)O[H])S2)C([H])([H])[H])C#N

$$$$

  CDK     1017240548

 22 23  0  0  0  0  0  0  0  0999 V2000
   -2.8085   -3.6892    0.0000 C   0  0  0  0  0  0  0  0  0  0  0  0
   -1.8020   -4.8014    0.0000 C   0  0  0  0  0  0  0  0  0  0  0  0
   -2.2620   -6.2292    0.0000 C   0  0  0  0  0  0  0  0  0  0  0  0
   -0.3356   -4.4859    0.0000 C   0  0  0  0  0  0  0  0  0  0  0  0
    0.1244   -3.0582    0.0000 O   0  0  0  0  0  0  0  0  0  0  0  0
    1.5908   -2.7427    0.0000 C   0  0  0  0  0  0  0  0  0  0  0  0
    2.0513   -1.3142    0.0000 C   0  0  0  0  0  0  0  0  0  0  0  0
    3.5184   -0.9978    0.0000 C   0  0  0  0  0  0  0  0  0  0  0  0
    4.5250   -2.1099    0.0000 C   0  0  0  0  0  0  0  0  0  0  0  0
    4.0646   -3.5383    0.0000 C   0  0  0  0  0  0  0  0  0  0  0  0
    2.5975   -3.8547    0.0000 C   0  0  0  0  0  0  0  0  0  0  0  0
    5.9915   -1.7944    0.0000 C   0  0  0  0  0  0  0  0  0  0  0  0
    7.0998   -2.7941    0.0000 N   0  0  0  0  0  0  0  0  0  0  0  0
    8.3989   -2.0441    0.0000 C   0  0  0  0  0  0  0  0  0  0  0  0
    8.0873   -0.5844    0.0000 C   0  0  0  0  0  0  0  0  0  0  0  0
    9.0937    0.5279    0.0000 C   0  0  0  0  0  0  0  0  0  0  0  0
    8.6338    1.9556    0.0000 O   0  0  0  0  0  0  0  0  0  0  0  0
   10.5602    0.2123    0.0000 O   0  0  0  0  0  0  0  0  0  0  0  0
    6.5944   -0.4186    0.0000 S   0  0  0  0  0  0  0  0  0  0  0  0
    9.7695   -2.6536    0.0000 C   0  0  0  0  0  0  0  0  0  0  0  0
    1.0446   -0.2022    0.0000 C   0  0  0  0  0  0  0  0  0  0  0  0
    0.0380    0.9099    0.0000 N   0  0  0  0  0  0  0  0  0  0  0  0
  1  2  2  0  0  0  0 
  2  3  1  0  0  0  0 
  2  4  1  0  0  0  0 
  4  5  1  0  0  0  0 
  5  6  1  0  0  0  0 
  6  7  2  0  0  0  0 
  7  8  1  0  0  0  0 
  8  9  2  0  0  0  0 
  9 10  1  0  0  0  0 
 10 11  2  0  0  0  0 
  6 11  1  0  0  0  0 
  9 12  1  0  0  0  0 
 12 13  2  0  0  0  0 
 13 14  1  0  0  0  0 
 14 15  2  0  0  0  0 
 15 16  1  0  0  0  0 
 16 17  2  0  0  0  0 
 16 18  1  0  0  0  0 
 15 19  1  0  0  0  0 
 12 19  1  0  0  0  0 
 14 20  1  0  0  0  0 
  7 21  1  0  0  0  0 
 21 22  3  0  0  0  0 
M  END
> <Rank>
14

> <Priority_score>
0.254

> <Reaction_type>
alkyl dehydrogenation

> <Parent_ID>
1

> <Parent_InChI>
InChI=1S/C16H16N2O3S/c1-9(2)8-21-13-5-4-11(6-12(13)7-17)15-18-10(3)14(22-15)16(19)20/h4-6,9H,8H2,1-3H3,(H,19,20)

> <Parent_SMILES>
C([H])([H])([H])C([H])(C([H])([H])[H])C([H])([H])OC1=C(C([H])=C(C([H])=C1[H])C2=NC(=C(C(=O)O[H])S2)C([H])([H])[H])C#N

$$$$

  CDK     1017240548

 23 24  0  0  0  0  0  0  0  0999 V2000
   -4.1200   -1.2675    0.0000 C   0  0  0  0  0  0  0  0  0  0  0  0
   -3.1135   -2.3797    0.0000 C   0  0  0  0  0  0  0  0  0  0  0  0
   -3.5735   -3.8074    0.0000 C   0  0  0  0  0  0  0  0  0  0  0  0
   -1.6471   -2.0642    0.0000 C   0  0  0  0  0  0  0  0  0  0  0  0
   -0.6406   -3.1764    0.0000 O   0  0  0  0  0  0  0  0  0  0  0  0
    0.8258   -2.8609    0.0000 C   0  0  0  0  0  0  0  0  0  0  0  0
    1.2863   -1.4324    0.0000 C   0  0  0  0  0  0  0  0  0  0  0  0
    2.7534   -1.1160    0.0000 C   0  0  0  0  0  0  0  0  0  0  0  0
    3.7600   -2.2281    0.0000 C   0  0  0  0  0  0  0  0  0  0  0  0
    3.2996   -3.6565    0.0000 C   0  0  0  0  0  0  0  0  0  0  0  0
    1.8324   -3.9729    0.0000 C   0  0  0  0  0  0  0  0  0  0  0  0
    1.3729   -5.4008    0.0000 C   0  0  0  0  0  0  0  0  0  0  0  0
    0.9134   -6.8287    0.0000 N   0  0  0  0  0  0  0  0  0  0  0  0
    5.2264   -1.9125    0.0000 C   0  0  0  0  0  0  0  0  0  0  0  0
    6.3348   -2.9123    0.0000 N   0  0  0  0  0  0  0  0  0  0  0  0
    7.6339   -2.1623    0.0000 C   0  0  0  0  0  0  0  0  0  0  0  0
    7.3222   -0.7025    0.0000 C   0  0  0  0  0  0  0  0  0  0  0  0
    8.3287    0.4097    0.0000 C   0  0  0  0  0  0  0  0  0  0  0  0
    7.8687    1.8374    0.0000 O   0  0  0  0  0  0  0  0  0  0  0  0
    9.7951    0.0942    0.0000 O   0  0  0  0  0  0  0  0  0  0  0  0
    5.8293   -0.5368    0.0000 S   0  0  0  0  0  0  0  0  0  0  0  0
    9.0044   -2.7718    0.0000 C   0  0  0  0  0  0  0  0  0  0  0  0
    3.2129    0.3119    0.0000 O   0  0  0  0  0  0  0  0  0  0  0  0
  1  2  1  0  0  0  0 
  2  3  1  0  0  0  0 
  2  4  1  0  0  0  0 
  4  5  1  0  0  0  0 
  5  6  1  0  0  0  0 
  6  7  2  0  0  0  0 
  7  8  1  0  0  0  0 
  8  9  2  0  0  0  0 
  9 10  1  0  0  0  0 
 10 11  2  0  0  0  0 
  6 11  1  0  0  0  0 
 11 12  1  0  0  0  0 
 12 13  3  0  0  0  0 
  9 14  1  0  0  0  0 
 14 15  2  0  0  0  0 
 15 16  1  0  0  0  0 
 16 17  2  0  0  0  0 
 17 18  1  0  0  0  0 
 18 19  2  0  0  0  0 
 18 20  1  0  0  0  0 
 17 21  1  0  0  0  0 
 14 21  1  0  0  0  0 
 16 22  1  0  0  0  0 
  8 23  1  0  0  0  0 
M  END
> <Rank>
15

> <Priority_score>
0.21000000000000002

> <Reaction_type>
aromatic hydroxylation

> <Parent_ID>
1

> <Parent_InChI>
InChI=1S/C16H16N2O3S/c1-9(2)8-21-13-5-4-11(6-12(13)7-17)15-18-10(3)14(22-15)16(19)20/h4-6,9H,8H2,1-3H3,(H,19,20)

> <Parent_SMILES>
C([H])([H])([H])C([H])(C([H])([H])[H])C([H])([H])OC1=C(C([H])=C(C([H])=C1[H])C2=NC(=C(C(=O)O[H])S2)C([H])([H])[H])C#N

$$$$

  CDK     1017240548

 23 24  0  0  0  0  0  0  0  0999 V2000
   -2.2620   -6.2292    0.0000 C   0  0  0  0  0  0  0  0  0  0  0  0
   -1.8020   -4.8014    0.0000 C   0  0  0  0  0  0  0  0  0  0  0  0
   -2.8085   -3.6892    0.0000 C   0  0  0  0  0  0  0  0  0  0  0  0
   -0.3356   -4.4859    0.0000 C   0  0  0  0  0  0  0  0  0  0  0  0
    0.1244   -3.0582    0.0000 O   0  0  0  0  0  0  0  0  0  0  0  0
    1.5908   -2.7427    0.0000 C   0  0  0  0  0  0  0  0  0  0  0  0
    2.0513   -1.3142    0.0000 C   0  0  0  0  0  0  0  0  0  0  0  0
    1.0446   -0.2022    0.0000 C   0  0  0  0  0  0  0  0  0  0  0  0
    0.0380    0.9099    0.0000 N   0  0  0  0  0  0  0  0  0  0  0  0
    3.5184   -0.9978    0.0000 C   0  0  0  0  0  0  0  0  0  0  0  0
    4.5250   -2.1099    0.0000 C   0  0  0  0  0  0  0  0  0  0  0  0
    4.0646   -3.5383    0.0000 C   0  0  0  0  0  0  0  0  0  0  0  0
    2.5975   -3.8547    0.0000 C   0  0  0  0  0  0  0  0  0  0  0  0
    5.9915   -1.7944    0.0000 C   0  0  0  0  0  0  0  0  0  0  0  0
    7.0998   -2.7941    0.0000 N   0  0  0  0  0  0  0  0  0  0  0  0
    8.3989   -2.0441    0.0000 C   0  0  0  0  0  0  0  0  0  0  0  0
    8.0873   -0.5844    0.0000 C   0  0  0  0  0  0  0  0  0  0  0  0
    9.0937    0.5279    0.0000 C   0  0  0  0  0  0  0  0  0  0  0  0
    8.6338    1.9556    0.0000 O   0  0  0  0  0  0  0  0  0  0  0  0
   10.5602    0.2123    0.0000 O   0  0  0  0  0  0  0  0  0  0  0  0
    6.5944   -0.4186    0.0000 S   0  0  0  0  0  0  0  0  0  0  0  0
    9.7695   -2.6536    0.0000 C   0  0  0  0  0  0  0  0  0  0  0  0
    3.9779    0.4301    0.0000 O   0  0  0  0  0  0  0  0  0  0  0  0
  1  2  1  0  0  0  0 
  2  3  1  0  0  0  0 
  2  4  1  0  0  0  0 
  4  5  1  0  0  0  0 
  5  6  1  0  0  0  0 
  6  7  2  0  0  0  0 
  7  8  1  0  0  0  0 
  8  9  3  0  0  0  0 
  7 10  1  0  0  0  0 
 10 11  2  0  0  0  0 
 11 12  1  0  0  0  0 
 12 13  2  0  0  0  0 
  6 13  1  0  0  0  0 
 11 14  1  0  0  0  0 
 14 15  2  0  0  0  0 
 15 16  1  0  0  0  0 
 16 17  2  0  0  0  0 
 17 18  1  0  0  0  0 
 18 19  2  0  0  0  0 
 18 20  1  0  0  0  0 
 17 21  1  0  0  0  0 
 14 21  1  0  0  0  0 
 16 22  1  0  0  0  0 
 10 23  1  0  0  0  0 
M  END
> <Rank>
16

> <Priority_score>
0.15

> <Reaction_type>
aromatic hydroxylation

> <Parent_ID>
1

> <Parent_InChI>
InChI=1S/C16H16N2O3S/c1-9(2)8-21-13-5-4-11(6-12(13)7-17)15-18-10(3)14(22-15)16(19)20/h4-6,9H,8H2,1-3H3,(H,19,20)

> <Parent_SMILES>
C([H])([H])([H])C([H])(C([H])([H])[H])C([H])([H])OC1=C(C([H])=C(C([H])=C1[H])C2=NC(=C(C(=O)O[H])S2)C([H])([H])[H])C#N

$$$$

  CDK     1017240548

 23 24  0  0  0  0  0  0  0  0999 V2000
   10.1267   -2.1199    0.0000 C   0  0  0  0  0  0  0  0  0  0  0  0
    9.1203   -1.0076    0.0000 C   0  0  0  0  0  0  0  0  0  0  0  0
    9.5802    0.4201    0.0000 C   0  0  0  0  0  0  0  0  0  0  0  0
    7.6538   -1.3232    0.0000 C   0  0  0  0  0  0  0  0  0  0  0  0
    6.6473   -0.2109    0.0000 O   0  0  0  0  0  0  0  0  0  0  0  0
    5.1809   -0.5265    0.0000 C   0  0  0  0  0  0  0  0  0  0  0  0
    4.1737    0.5862    0.0000 C   0  0  0  0  0  0  0  0  0  0  0  0
    2.7063    0.2712    0.0000 C   0  0  0  0  0  0  0  0  0  0  0  0
    2.2461   -1.1564    0.0000 C   0  0  0  0  0  0  0  0  0  0  0  0
    3.2533   -2.2691    0.0000 C   0  0  0  0  0  0  0  0  0  0  0  0
    4.7207   -1.9541    0.0000 C   0  0  0  0  0  0  0  0  0  0  0  0
    5.7268   -3.0667    0.0000 C   0  0  0  0  0  0  0  0  0  0  0  0
    6.7329   -4.1792    0.0000 N   0  0  0  0  0  0  0  0  0  0  0  0
    0.7797   -1.4720    0.0000 C   0  0  0  0  0  0  0  0  0  0  0  0
   -0.3287   -0.4722    0.0000 N   0  0  0  0  0  0  0  0  0  0  0  0
   -1.6278   -1.2222    0.0000 C   0  0  0  0  0  0  0  0  0  0  0  0
   -1.3161   -2.6820    0.0000 C   0  0  0  0  0  0  0  0  0  0  0  0
   -2.3226   -3.7942    0.0000 C   0  0  0  0  0  0  0  0  0  0  0  0
   -1.8626   -5.2219    0.0000 O   0  0  0  0  0  0  0  0  0  0  0  0
   -3.7890   -3.4787    0.0000 O   0  0  0  0  0  0  0  0  0  0  0  0
    0.1768   -2.8477    0.0000 S   0  0  0  0  0  0  0  0  0  0  0  0
   -2.9983   -0.6127    0.0000 C   0  0  0  0  0  0  0  0  0  0  0  0
    4.6339    2.0139    0.0000 O   0  0  0  0  0  0  0  0  0  0  0  0
  1  2  1  0  0  0  0 
  2  3  1  0  0  0  0 
  2  4  1  0  0  0  0 
  4  5  1  0  0  0  0 
  5  6  1  0  0  0  0 
  6  7  2  0  0  0  0 
  7  8  1  0  0  0  0 
  8  9  2  0  0  0  0 
  9 10  1  0  0  0  0 
 10 11  2  0  0  0  0 
  6 11  1  0  0  0  0 
 11 12  1  0  0  0  0 
 12 13  3  0  0  0  0 
  9 14  1  0  0  0  0 
 14 15  2  0  0  0  0 
 15 16  1  0  0  0  0 
 16 17  2  0  0  0  0 
 17 18  1  0  0  0  0 
 18 19  2  0  0  0  0 
 18 20  1  0  0  0  0 
 17 21  1  0  0  0  0 
 14 21  1  0  0  0  0 
 16 22  1  0  0  0  0 
  7 23  1  0  0  0  0 
M  END
> <Rank>
17

> <Priority_score>
0.08

> <Reaction_type>
aromatic hydroxylation

> <Parent_ID>
1

> <Parent_InChI>
InChI=1S/C16H16N2O3S/c1-9(2)8-21-13-5-4-11(6-12(13)7-17)15-18-10(3)14(22-15)16(19)20/h4-6,9H,8H2,1-3H3,(H,19,20)

> <Parent_SMILES>
C([H])([H])([H])C([H])(C([H])([H])[H])C([H])([H])OC1=C(C([H])=C(C([H])=C1[H])C2=NC(=C(C(=O)O[H])S2)C([H])([H])[H])C#N

$$$$
