
  CDK     1017240551

 10 10  0  0  0  0  0  0  0  0999 V2000
    0.0000    1.5000    0.0000 C   0  0  0  0  0  0  0  0  0  0  0  0
   -1.3000    0.7500    0.0000 C   0  0  0  0  0  0  0  0  0  0  0  0
   -1.3000   -0.7500    0.0000 C   0  0  0  0  0  0  0  0  0  0  0  0
    0.0000   -1.5000    0.0000 C   0  0  0  0  0  0  0  0  0  0  0  0
    1.3000   -0.7500    0.0000 C   0  0  0  0  0  0  0  0  0  0  0  0
    1.3000    0.7500    0.0000 C   0  0  0  0  0  0  0  0  0  0  0  0
    2.5989   -1.5002    0.0000 N   0  0  0  0  0  0  0  0  0  0  0  0
   -2.5989    1.5002    0.0000 C   0  0  0  0  0  0  0  0  0  0  0  0
   -2.5987    3.0002    0.0000 O   0  0  0  0  0  0  0  0  0  0  0  0
   -3.8981    0.7504    0.0000 O   0  0  0  0  0  0  0  0  0  0  0  0
  1  2  2  0  0  0  0 
  2  3  1  0  0  0  0 
  3  4  2  0  0  0  0 
  4  5  1  0  0  0  0 
  5  6  2  0  0  0  0 
  1  6  1  0  0  0  0 
  5  7  1  0  0  0  0 
  2  8  1  0  0  0  0 
  8  9  2  0  0  0  0 
  8 10  1  0  0  0  0 
M  END
> <Rank>
1

> <Priority_score>
3.63

> <Reaction_type>
oxidative ether cleavage to one alcohol and one aldehyde/ketone

> <Parent_ID>
1

> <Parent_InChI>
InChI=1S/C9H11NO2/c1-2-12-9(11)7-3-5-8(10)6-4-7/h3-6H,2,10H2,1H3

> <Parent_SMILES>
C([H])([H])([H])C([H])([H])OC(=O)C1=C([H])C([H])=C(C([H])=C1[H])N([H])[H]

$$$$

  CDK     1017240551

 13 13  0  0  0  0  0  0  0  0999 V2000
    2.5989    0.7496    0.0000 C   0  0  0  0  0  0  0  0  0  0  0  0
    1.2998   -0.0002    0.0000 C   0  0  0  0  0  0  0  0  0  0  0  0
    1.2995   -1.5002    0.0000 O   0  0  0  0  0  0  0  0  0  0  0  0
    0.0008    0.7500    0.0000 O   0  0  0  0  0  0  0  0  0  0  0  0
   -1.2983    0.0002    0.0000 C   0  0  0  0  0  0  0  0  0  0  0  0
   -1.2986   -1.4998    0.0000 O   0  0  0  0  0  0  0  0  0  0  0  0
   -2.5972    0.7504    0.0000 C   0  0  0  0  0  0  0  0  0  0  0  0
   -2.5972    2.2504    0.0000 C   0  0  0  0  0  0  0  0  0  0  0  0
   -3.8972    3.0004    0.0000 C   0  0  0  0  0  0  0  0  0  0  0  0
   -5.1972    2.2504    0.0000 C   0  0  0  0  0  0  0  0  0  0  0  0
   -5.1972    0.7504    0.0000 C   0  0  0  0  0  0  0  0  0  0  0  0
   -3.8972    0.0004    0.0000 C   0  0  0  0  0  0  0  0  0  0  0  0
   -6.4962    3.0006    0.0000 N   0  0  0  0  0  0  0  0  0  0  0  0
  1  2  1  0  0  0  0 
  2  3  1  0  0  0  0 
  2  4  1  0  0  0  0 
  4  5  1  0  0  0  0 
  5  6  2  0  0  0  0 
  5  7  1  0  0  0  0 
  7  8  2  0  0  0  0 
  8  9  1  0  0  0  0 
  9 10  2  0  0  0  0 
 10 11  1  0  0  0  0 
 11 12  2  0  0  0  0 
  7 12  1  0  0  0  0 
 10 13  1  0  0  0  0 
M  END
> <Rank>
1

> <Priority_score>
3.63

> <Reaction_type>
aliphatic hydroxylation

> <Parent_ID>
1

> <Parent_InChI>
InChI=1S/C9H11NO2/c1-2-12-9(11)7-3-5-8(10)6-4-7/h3-6H,2,10H2,1H3

> <Parent_SMILES>
C([H])([H])([H])C([H])([H])OC(=O)C1=C([H])C([H])=C(C([H])=C1[H])N([H])[H]

$$$$

  CDK     1017240551

  3  2  0  0  0  0  0  0  0  0999 V2000
    0.0000    0.0000    0.0000 C   0  0  0  0  0  0  0  0  0  0  0  0
    1.2990   -0.7500    0.0000 C   0  0  0  0  0  0  0  0  0  0  0  0
    2.5981   -0.0000    0.0000 O   0  0  0  0  0  0  0  0  0  0  0  0
  1  2  1  0  0  0  0 
  2  3  2  0  0  0  0 
M  END
> <Rank>
1

> <Priority_score>
3.63

> <Reaction_type>
oxidative ether cleavage to one alcohol and one aldehyde/ketone

> <Parent_ID>
1

> <Parent_InChI>
InChI=1S/C9H11NO2/c1-2-12-9(11)7-3-5-8(10)6-4-7/h3-6H,2,10H2,1H3

> <Parent_SMILES>
C([H])([H])([H])C([H])([H])OC(=O)C1=C([H])C([H])=C(C([H])=C1[H])N([H])[H]

$$$$

  CDK     1017240551

 13 13  0  0  0  0  0  0  0  0999 V2000
    3.8981    0.7492    0.0000 C   0  0  0  0  0  0  0  0  0  0  0  0
    2.5989   -0.0006    0.0000 C   0  0  0  0  0  0  0  0  0  0  0  0
    1.3000    0.7496    0.0000 O   0  0  0  0  0  0  0  0  0  0  0  0
    0.0008   -0.0002    0.0000 C   0  0  0  0  0  0  0  0  0  0  0  0
    0.0006   -1.5002    0.0000 O   0  0  0  0  0  0  0  0  0  0  0  0
   -1.2981    0.7500    0.0000 C   0  0  0  0  0  0  0  0  0  0  0  0
   -1.2981    2.2500    0.0000 C   0  0  0  0  0  0  0  0  0  0  0  0
   -2.5981    3.0000    0.0000 C   0  0  0  0  0  0  0  0  0  0  0  0
   -3.8981    2.2500    0.0000 C   0  0  0  0  0  0  0  0  0  0  0  0
   -3.8981    0.7500    0.0000 C   0  0  0  0  0  0  0  0  0  0  0  0
   -2.5981   -0.0000    0.0000 C   0  0  0  0  0  0  0  0  0  0  0  0
   -5.1970    3.0002    0.0000 N   0  0  0  0  0  0  0  0  0  0  0  0
   -6.4962    2.2504    0.0000 O   0  0  0  0  0  0  0  0  0  0  0  0
  1  2  1  0  0  0  0 
  2  3  1  0  0  0  0 
  3  4  1  0  0  0  0 
  4  5  2  0  0  0  0 
  4  6  1  0  0  0  0 
  6  7  2  0  0  0  0 
  7  8  1  0  0  0  0 
  8  9  2  0  0  0  0 
  9 10  1  0  0  0  0 
 10 11  2  0  0  0  0 
  6 11  1  0  0  0  0 
  9 12  1  0  0  0  0 
 12 13  1  0  0  0  0 
M  END
> <Rank>
4

> <Priority_score>
3.61

> <Reaction_type>
amine hydroxylation

> <Parent_ID>
1

> <Parent_InChI>
InChI=1S/C9H11NO2/c1-2-12-9(11)7-3-5-8(10)6-4-7/h3-6H,2,10H2,1H3

> <Parent_SMILES>
C([H])([H])([H])C([H])([H])OC(=O)C1=C([H])C([H])=C(C([H])=C1[H])N([H])[H]

$$$$

  CDK     1017240551

 13 13  0  0  0  0  0  0  0  0999 V2000
   -5.4988    1.6460    0.0000 C   0  0  0  0  0  0  0  0  0  0  0  0
   -4.2023    2.4003    0.0000 C   0  0  0  0  0  0  0  0  0  0  0  0
   -2.9007    1.6547    0.0000 O   0  0  0  0  0  0  0  0  0  0  0  0
   -1.6042    2.4090    0.0000 C   0  0  0  0  0  0  0  0  0  0  0  0
   -1.6092    3.9090    0.0000 O   0  0  0  0  0  0  0  0  0  0  0  0
   -0.3027    1.6633    0.0000 C   0  0  0  0  0  0  0  0  0  0  0  0
   -0.2982    0.1711    0.0000 C   0  0  0  0  0  0  0  0  0  0  0  0
    1.0009   -0.5789    0.0000 C   0  0  0  0  0  0  0  0  0  0  0  0
    2.3127    0.1533    0.0000 C   0  0  0  0  0  0  0  0  0  0  0  0
    2.3009    1.6728    0.0000 C   0  0  0  0  0  0  0  0  0  0  0  0
    1.0018    2.4228    0.0000 C   0  0  0  0  0  0  0  0  0  0  0  0
    3.5970    2.4279    0.0000 O   0  0  0  0  0  0  0  0  0  0  0  0
    3.6092   -0.6011    0.0000 N   0  0  0  0  0  0  0  0  0  0  0  0
  1  2  1  0  0  0  0 
  2  3  1  0  0  0  0 
  3  4  1  0  0  0  0 
  4  5  2  0  0  0  0 
  4  6  1  0  0  0  0 
  6  7  2  0  0  0  0 
  7  8  1  0  0  0  0 
  8  9  2  0  0  0  0 
  9 10  1  0  0  0  0 
 10 11  2  0  0  0  0 
  6 11  1  0  0  0  0 
 10 12  1  0  0  0  0 
  9 13  1  0  0  0  0 
M  END
> <Rank>
5

> <Priority_score>
0.8699999999999999

> <Reaction_type>
aromatic hydroxylation

> <Parent_ID>
1

> <Parent_InChI>
InChI=1S/C9H11NO2/c1-2-12-9(11)7-3-5-8(10)6-4-7/h3-6H,2,10H2,1H3

> <Parent_SMILES>
C([H])([H])([H])C([H])([H])OC(=O)C1=C([H])C([H])=C(C([H])=C1[H])N([H])[H]

$$$$

  CDK     1017240551

 12 12  0  0  0  0  0  0  0  0999 V2000
   -6.4962    0.7508    0.0000 C   0  0  0  0  0  0  0  0  0  0  0  0
   -5.1970    1.5006    0.0000 C   0  0  0  0  0  0  0  0  0  0  0  0
   -3.8981    0.7504    0.0000 O   0  0  0  0  0  0  0  0  0  0  0  0
   -2.5989    1.5002    0.0000 C   0  0  0  0  0  0  0  0  0  0  0  0
   -2.5987    3.0002    0.0000 O   0  0  0  0  0  0  0  0  0  0  0  0
   -1.3000    0.7500    0.0000 C   0  0  0  0  0  0  0  0  0  0  0  0
   -1.3000   -0.7500    0.0000 C   0  0  0  0  0  0  0  0  0  0  0  0
    0.0000   -1.5000    0.0000 C   0  0  0  0  0  0  0  0  0  0  0  0
    1.3000   -0.7500    0.0000 C   0  0  0  0  0  0  0  0  0  0  0  0
    1.3000    0.7500    0.0000 C   0  0  0  0  0  0  0  0  0  0  0  0
    0.0000    1.5000    0.0000 C   0  0  0  0  0  0  0  0  0  0  0  0
    2.5989   -1.5002    0.0000 N   0  0  0  0  0  0  0  0  0  0  0  0
  1  2  2  0  0  0  0 
  2  3  1  0  0  0  0 
  3  4  1  0  0  0  0 
  4  5  2  0  0  0  0 
  4  6  1  0  0  0  0 
  6  7  2  0  0  0  0 
  7  8  1  0  0  0  0 
  8  9  2  0  0  0  0 
  9 10  1  0  0  0  0 
 10 11  2  0  0  0  0 
  6 11  1  0  0  0  0 
  9 12  1  0  0  0  0 
M  END
> <Rank>
6

> <Priority_score>
0.726

> <Reaction_type>
alkyl dehydrogenation

> <Parent_ID>
1

> <Parent_InChI>
InChI=1S/C9H11NO2/c1-2-12-9(11)7-3-5-8(10)6-4-7/h3-6H,2,10H2,1H3

> <Parent_SMILES>
C([H])([H])([H])C([H])([H])OC(=O)C1=C([H])C([H])=C(C([H])=C1[H])N([H])[H]

$$$$

  CDK     1017240551

 13 13  0  0  0  0  0  0  0  0999 V2000
    3.8974    3.0001    0.0000 C   0  0  0  0  0  0  0  0  0  0  0  0
    2.5985    3.7503    0.0000 C   0  0  0  0  0  0  0  0  0  0  0  0
    1.2993    3.0005    0.0000 O   0  0  0  0  0  0  0  0  0  0  0  0
    0.0004    3.7507    0.0000 C   0  0  0  0  0  0  0  0  0  0  0  0
    0.0007    5.2507    0.0000 O   0  0  0  0  0  0  0  0  0  0  0  0
   -1.2987    3.0009    0.0000 C   0  0  0  0  0  0  0  0  0  0  0  0
   -1.2992    1.5001    0.0000 C   0  0  0  0  0  0  0  0  0  0  0  0
   -2.5987    0.7493    0.0000 C   0  0  0  0  0  0  0  0  0  0  0  0
   -3.8978    1.4993    0.0000 C   0  0  0  0  0  0  0  0  0  0  0  0
   -3.8973    3.0001    0.0000 C   0  0  0  0  0  0  0  0  0  0  0  0
   -2.5978    3.7509    0.0000 C   0  0  0  0  0  0  0  0  0  0  0  0
   -2.5980    5.2509    0.0000 O   0  0  0  0  0  0  0  0  0  0  0  0
   -5.1969    0.7495    0.0000 N   0  0  0  0  0  0  0  0  0  0  0  0
  1  2  1  0  0  0  0 
  2  3  1  0  0  0  0 
  3  4  1  0  0  0  0 
  4  5  2  0  0  0  0 
  4  6  1  0  0  0  0 
  6  7  2  0  0  0  0 
  7  8  1  0  0  0  0 
  8  9  2  0  0  0  0 
  9 10  1  0  0  0  0 
 10 11  2  0  0  0  0 
  6 11  1  0  0  0  0 
 11 12  1  0  0  0  0 
  9 13  1  0  0  0  0 
M  END
> <Rank>
7

> <Priority_score>
0.37

> <Reaction_type>
aromatic hydroxylation

> <Parent_ID>
1

> <Parent_InChI>
InChI=1S/C9H11NO2/c1-2-12-9(11)7-3-5-8(10)6-4-7/h3-6H,2,10H2,1H3

> <Parent_SMILES>
C([H])([H])([H])C([H])([H])OC(=O)C1=C([H])C([H])=C(C([H])=C1[H])N([H])[H]

$$$$

  CDK     1017240551

 13 13  0  0  0  0  0  0  0  0999 V2000
    0.0000    1.5000    0.0000 C   0  0  0  0  0  0  0  0  0  0  0  0
   -1.3000    0.7500    0.0000 C   0  0  0  0  0  0  0  0  0  0  0  0
   -1.3000   -0.7500    0.0000 C   0  0  0  0  0  0  0  0  0  0  0  0
    0.0000   -1.5000    0.0000 C   0  0  0  0  0  0  0  0  0  0  0  0
    1.3000   -0.7500    0.0000 C   0  0  0  0  0  0  0  0  0  0  0  0
    1.3000    0.7500    0.0000 C   0  0  0  0  0  0  0  0  0  0  0  0
    2.5989   -1.5002    0.0000 N   0  0  0  0  0  0  0  0  0  0  0  0
   -2.5989    1.5002    0.0000 C   0  0  0  0  0  0  0  0  0  0  0  0
   -2.5987    3.0002    0.0000 O   0  0  0  0  0  0  0  0  0  0  0  0
   -3.8981    0.7504    0.0000 O   0  0  0  0  0  0  0  0  0  0  0  0
   -5.1970    1.5006    0.0000 C   0  0  0  0  0  0  0  0  0  0  0  0
   -6.4962    0.7508    0.0000 C   0  0  0  0  0  0  0  0  0  0  0  0
   -7.7951    1.5010    0.0000 O   0  0  0  0  0  0  0  0  0  0  0  0
  1  2  2  0  0  0  0 
  2  3  1  0  0  0  0 
  3  4  2  0  0  0  0 
  4  5  1  0  0  0  0 
  5  6  2  0  0  0  0 
  1  6  1  0  0  0  0 
  5  7  1  0  0  0  0 
  2  8  1  0  0  0  0 
  8  9  2  0  0  0  0 
  8 10  1  0  0  0  0 
 10 11  1  0  0  0  0 
 11 12  1  0  0  0  0 
 12 13  1  0  0  0  0 
M  END
> <Rank>
8

> <Priority_score>
0.10999999999999999

> <Reaction_type>
aliphatic hydroxylation

> <Parent_ID>
1

> <Parent_InChI>
InChI=1S/C9H11NO2/c1-2-12-9(11)7-3-5-8(10)6-4-7/h3-6H,2,10H2,1H3

> <Parent_SMILES>
C([H])([H])([H])C([H])([H])OC(=O)C1=C([H])C([H])=C(C([H])=C1[H])N([H])[H]

$$$$
