
  CDK     1017240202

 13 12  0  0  0  0  0  0  0  0999 V2000
    3.8971   -2.1595    0.0000 C   0  0  0  0  0  0  0  0  0  0  0  0
    5.1962   -1.4095    0.0000 C   0  0  0  0  0  0  0  0  0  0  0  0
    6.4952   -2.1595    0.0000 O   0  0  0  0  0  0  0  0  0  0  0  0
    2.5981   -1.4095    0.0000 C   0  0  2  0  0  0  0  0  0  0  0  0
    3.5623   -0.2605    0.0000 O   0  0  0  0  0  0  0  0  0  0  0  0
    1.2990   -2.1595    0.0000 P   0  0  0  0  0  0  0  0  0  0  0  0
    0.3349   -3.3086    0.0000 O   0  0  0  0  0  0  0  0  0  0  0  0
   -0.0000   -1.4095    0.0000 O   0  0  0  0  0  0  0  0  0  0  0  0
    2.2632   -3.3086    0.0000 O   0  0  0  0  0  0  0  0  0  0  0  0
    1.6339   -0.2605    0.0000 P   0  0  0  0  0  0  0  0  0  0  0  0
    2.9329    0.4895    0.0000 O   0  0  0  0  0  0  0  0  0  0  0  0
    0.1567   -0.5209    0.0000 O   0  0  0  0  0  0  0  0  0  0  0  0
    1.1209    1.1491    0.0000 O   0  0  0  0  0  0  0  0  0  0  0  0
  1  2  1  0  0  0  0 
  2  3  2  0  0  0  0 
  1  4  1  0  0  0  0 
  4  5  1  1  0  0  0 
  4  6  1  0  0  0  0 
  6  7  2  0  0  0  0 
  6  8  1  0  0  0  0 
  6  9  1  0  0  0  0 
  4 10  1  6  0  0  0 
 10 11  2  0  0  0  0 
 10 12  1  0  0  0  0 
 10 13  1  0  0  0  0 
M  CHG  1  13  -1
M  END
> <Rank>
1

> <Priority_score>
2.15

> <Reaction_type>
N-dealkylation

> <Parent_ID>
1

> <Parent_InChI>
InChI=1S/C3H11NO7P2/c4-2-1-3(5,12(6,7)8)13(9,10)11/h5H,1-2,4H2,(H2,6,7,8)(H2,9,10,11)

> <Parent_SMILES>
C([H])([H])(C([H])([H])[N+]([H])([H])[H])[C@](O[H])(P(=O)(O[H])O[H])P(=O)(O[H])[O-]

$$$$

  CDK     1017240202

 14 13  0  0  0  0  0  0  0  0999 V2000
    4.7378    0.2647    0.0000 C   0  0  0  0  0  0  0  0  0  0  0  0
    3.4387   -0.4853    0.0000 C   0  0  0  0  0  0  0  0  0  0  0  0
    2.1397    0.2647    0.0000 N   0  0  0  0  0  0  0  0  0  0  0  0
    0.8406   -0.4853    0.0000 O   0  0  0  0  0  0  0  0  0  0  0  0
    6.0368   -0.4853    0.0000 C   0  0  2  0  0  0  0  0  0  0  0  0
    7.5140   -0.7458    0.0000 O   0  0  0  0  0  0  0  0  0  0  0  0
    6.0368   -1.9853    0.0000 P   0  0  0  0  0  0  0  0  0  0  0  0
    4.5596   -1.7249    0.0000 O   0  0  0  0  0  0  0  0  0  0  0  0
    7.3358   -2.7353    0.0000 O   0  0  0  0  0  0  0  0  0  0  0  0
    5.5238   -3.3949    0.0000 O   0  0  0  0  0  0  0  0  0  0  0  0
    6.5498    0.9242    0.0000 P   0  0  0  0  0  0  0  0  0  0  0  0
    6.5498    2.4242    0.0000 O   0  0  0  0  0  0  0  0  0  0  0  0
    8.0270    1.1847    0.0000 O   0  0  0  0  0  0  0  0  0  0  0  0
    5.0726    1.1847    0.0000 O   0  0  0  0  0  0  0  0  0  0  0  0
  1  2  1  0  0  0  0 
  2  3  1  0  0  0  0 
  3  4  1  0  0  0  0 
  1  5  1  0  0  0  0 
  5  6  1  6  0  0  0 
  5  7  1  1  0  0  0 
  7  8  2  0  0  0  0 
  7  9  1  0  0  0  0 
  7 10  1  0  0  0  0 
  5 11  1  0  0  0  0 
 11 12  2  0  0  0  0 
 11 13  1  0  0  0  0 
 11 14  1  0  0  0  0 
M  CHG  1   3   1
M  CHG  1  14  -1
M  END
> <Rank>
1

> <Priority_score>
2.15

> <Reaction_type>
amine hydroxylation

> <Parent_ID>
1

> <Parent_InChI>
InChI=1S/C3H11NO7P2/c4-2-1-3(5,12(6,7)8)13(9,10)11/h5H,1-2,4H2,(H2,6,7,8)(H2,9,10,11)

> <Parent_SMILES>
C([H])([H])(C([H])([H])[N+]([H])([H])[H])[C@](O[H])(P(=O)(O[H])O[H])P(=O)(O[H])[O-]

$$$$

  CDK     1017240202

 14 13  0  0  0  0  0  0  0  0999 V2000
    3.8971   -2.1595    0.0000 C   0  0  0  0  0  0  0  0  0  0  0  0
    5.1962   -1.4095    0.0000 C   0  0  0  0  0  0  0  0  0  0  0  0
    6.4952   -2.1595    0.0000 N   0  0  0  0  0  0  0  0  0  0  0  0
    5.1962    0.0905    0.0000 O   0  0  0  0  0  0  0  0  0  0  0  0
    2.5981   -1.4095    0.0000 C   0  0  2  0  0  0  0  0  0  0  0  0
    3.5623   -0.2605    0.0000 O   0  0  0  0  0  0  0  0  0  0  0  0
    1.2990   -2.1595    0.0000 P   0  0  0  0  0  0  0  0  0  0  0  0
    0.3349   -3.3086    0.0000 O   0  0  0  0  0  0  0  0  0  0  0  0
   -0.0000   -1.4095    0.0000 O   0  0  0  0  0  0  0  0  0  0  0  0
    2.2632   -3.3086    0.0000 O   0  0  0  0  0  0  0  0  0  0  0  0
    1.6339   -0.2605    0.0000 P   0  0  0  0  0  0  0  0  0  0  0  0
    2.9329    0.4895    0.0000 O   0  0  0  0  0  0  0  0  0  0  0  0
    0.1567   -0.5209    0.0000 O   0  0  0  0  0  0  0  0  0  0  0  0
    1.1209    1.1491    0.0000 O   0  0  0  0  0  0  0  0  0  0  0  0
  1  2  1  0  0  0  0 
  2  3  1  0  0  0  0 
  2  4  1  0  0  0  0 
  1  5  1  0  0  0  0 
  5  6  1  1  0  0  0 
  5  7  1  0  0  0  0 
  7  8  2  0  0  0  0 
  7  9  1  0  0  0  0 
  7 10  1  0  0  0  0 
  5 11  1  6  0  0  0 
 11 12  2  0  0  0  0 
 11 13  1  0  0  0  0 
 11 14  1  0  0  0  0 
M  CHG  1   3   1
M  CHG  1  14  -1
M  END
> <Rank>
1

> <Priority_score>
2.15

> <Reaction_type>
aliphatic hydroxylation

> <Parent_ID>
1

> <Parent_InChI>
InChI=1S/C3H11NO7P2/c4-2-1-3(5,12(6,7)8)13(9,10)11/h5H,1-2,4H2,(H2,6,7,8)(H2,9,10,11)

> <Parent_SMILES>
C([H])([H])(C([H])([H])[N+]([H])([H])[H])[C@](O[H])(P(=O)(O[H])O[H])P(=O)(O[H])[O-]

$$$$

  CDK     1017240202

 14 13  0  0  0  0  0  0  0  0999 V2000
    5.1962   -0.0000    0.0000 C   0  0  0  0  0  0  0  0  0  0  0  0
    3.8971   -0.7500    0.0000 C   0  0  0  0  0  0  0  0  0  0  0  0
    2.5981   -0.0000    0.0000 C   0  0  2  0  0  0  0  0  0  0  0  0
    3.5623    1.1491    0.0000 O   0  0  0  0  0  0  0  0  0  0  0  0
    1.2990   -0.7500    0.0000 P   0  0  0  0  0  0  0  0  0  0  0  0
    0.0000    0.0000    0.0000 O   0  0  0  0  0  0  0  0  0  0  0  0
    0.3349   -1.8991    0.0000 O   0  0  0  0  0  0  0  0  0  0  0  0
    2.2632   -1.8991    0.0000 O   0  0  0  0  0  0  0  0  0  0  0  0
    1.6339    1.1491    0.0000 P   0  0  0  0  0  0  0  0  0  0  0  0
    2.9329    1.8991    0.0000 O   0  0  0  0  0  0  0  0  0  0  0  0
    0.1567    0.8886    0.0000 O   0  0  0  0  0  0  0  0  0  0  0  0
    1.1209    2.5586    0.0000 O   0  0  0  0  0  0  0  0  0  0  0  0
    3.8971   -2.2500    0.0000 O   0  0  0  0  0  0  0  0  0  0  0  0
    6.4952   -0.7500    0.0000 N   0  0  0  0  0  0  0  0  0  0  0  0
  1  2  1  0  0  0  0 
  2  3  1  0  0  0  0 
  3  4  1  1  0  0  0 
  3  5  1  0  0  0  0 
  5  6  2  0  0  0  0 
  5  7  1  0  0  0  0 
  5  8  1  0  0  0  0 
  3  9  1  6  0  0  0 
  9 10  2  0  0  0  0 
  9 11  1  0  0  0  0 
  9 12  1  0  0  0  0 
  2 13  1  0  0  0  0 
  1 14  1  0  0  0  0 
M  CHG  1  12  -1
M  CHG  1  14   1
M  END
> <Rank>
4

> <Priority_score>
2.04

> <Reaction_type>
aliphatic hydroxylation

> <Parent_ID>
1

> <Parent_InChI>
InChI=1S/C3H11NO7P2/c4-2-1-3(5,12(6,7)8)13(9,10)11/h5H,1-2,4H2,(H2,6,7,8)(H2,9,10,11)

> <Parent_SMILES>
C([H])([H])(C([H])([H])[N+]([H])([H])[H])[C@](O[H])(P(=O)(O[H])O[H])P(=O)(O[H])[O-]

$$$$

  CDK     1017240202

 13 12  0  0  0  0  0  0  0  0999 V2000
    3.8971   -2.1595    0.0000 C   0  0  0  0  0  0  0  0  0  0  0  0
    5.1962   -1.4095    0.0000 C   0  0  0  0  0  0  0  0  0  0  0  0
    6.4952   -2.1595    0.0000 N   0  0  0  0  0  0  0  0  0  0  0  0
    2.5981   -1.4095    0.0000 C   0  0  2  0  0  0  0  0  0  0  0  0
    3.5623   -0.2605    0.0000 O   0  0  0  0  0  0  0  0  0  0  0  0
    1.2990   -2.1595    0.0000 P   0  0  0  0  0  0  0  0  0  0  0  0
    0.3349   -3.3086    0.0000 O   0  0  0  0  0  0  0  0  0  0  0  0
   -0.0000   -1.4095    0.0000 O   0  0  0  0  0  0  0  0  0  0  0  0
    2.2632   -3.3086    0.0000 O   0  0  0  0  0  0  0  0  0  0  0  0
    1.6339   -0.2605    0.0000 P   0  0  0  0  0  0  0  0  0  0  0  0
    2.9329    0.4895    0.0000 O   0  0  0  0  0  0  0  0  0  0  0  0
    0.1567   -0.5209    0.0000 O   0  0  0  0  0  0  0  0  0  0  0  0
    1.1209    1.1491    0.0000 O   0  0  0  0  0  0  0  0  0  0  0  0
  1  2  2  0  0  0  0 
  2  3  1  4  0  0  0 
  1  4  1  0  0  0  0 
  4  5  1  1  0  0  0 
  4  6  1  0  0  0  0 
  6  7  2  0  0  0  0 
  6  8  1  0  0  0  0 
  6  9  1  0  0  0  0 
  4 10  1  6  0  0  0 
 10 11  2  0  0  0  0 
 10 12  1  0  0  0  0 
 10 13  1  0  0  0  0 
M  CHG  1   3   1
M  CHG  1  13  -1
M  END
> <Rank>
5

> <Priority_score>
0.43

> <Reaction_type>
alkyl dehydrogenation

> <Parent_ID>
1

> <Parent_InChI>
InChI=1S/C3H11NO7P2/c4-2-1-3(5,12(6,7)8)13(9,10)11/h5H,1-2,4H2,(H2,6,7,8)(H2,9,10,11)

> <Parent_SMILES>
C([H])([H])(C([H])([H])[N+]([H])([H])[H])[C@](O[H])(P(=O)(O[H])O[H])P(=O)(O[H])[O-]

$$$$
