
  CDK     1017240909

 23 25  0  0  0  0  0  0  0  0999 V2000
    0.3323    2.4510    0.0000 C   0  0  0  0  0  0  0  0  0  0  0  0
    0.6546    3.8639    0.0000 C   0  0  0  0  0  0  0  0  0  0  0  0
    2.0749    4.3409    0.0000 C   0  0  0  0  0  0  0  0  0  0  0  0
    3.1323    3.3053    0.0000 C   0  0  0  0  0  0  0  0  0  0  0  0
    2.8101    1.8924    0.0000 C   0  0  0  0  0  0  0  0  0  0  0  0
    1.3897    1.4154    0.0000 C   0  0  0  0  0  0  0  0  0  0  0  0
    3.9223    0.8860    0.0000 C   0  0  0  0  0  0  0  0  0  0  0  0
    5.3500    1.3459    0.0000 C   0  0  0  0  0  0  0  0  0  0  0  0
    6.4125    0.3604    0.0000 C   0  0  0  0  0  0  0  0  0  0  0  0
    7.8380    0.7583    0.0000 C   0  0  0  0  0  0  0  0  0  0  0  0
    8.1351    2.2269    0.0000 C   0  0  0  0  0  0  0  0  0  0  0  0
    7.0726    3.2125    0.0000 C   0  0  0  0  0  0  0  0  0  0  0  0
    5.6471    2.8145    0.0000 C   0  0  0  0  0  0  0  0  0  0  0  0
    9.5628    2.6869    0.0000 C   0  0  0  0  0  0  0  0  0  0  0  0
   10.9906    3.1469    0.0000 N   0  0  0  0  0  0  0  0  0  0  0  0
    3.6068   -0.5805    0.0000 N   0  0  0  0  0  0  0  0  0  0  0  0
    4.6065   -1.6888    0.0000 C   0  0  0  0  0  0  0  0  0  0  0  0
    3.8565   -2.9879    0.0000 N   0  0  0  0  0  0  0  0  0  0  0  0
    2.3968   -2.6762    0.0000 C   0  0  0  0  0  0  0  0  0  0  0  0
    2.2310   -1.1834    0.0000 N   0  0  0  0  0  0  0  0  0  0  0  0
    4.4660   -4.3585    0.0000 O   0  0  0  0  0  0  0  0  0  0  0  0
   -0.4576    4.8704    0.0000 C   0  0  0  0  0  0  0  0  0  0  0  0
   -1.5699    5.8768    0.0000 N   0  0  0  0  0  0  0  0  0  0  0  0
  1  2  2  0  0  0  0 
  2  3  1  0  0  0  0 
  3  4  2  0  0  0  0 
  4  5  1  0  0  0  0 
  5  6  2  0  0  0  0 
  1  6  1  0  0  0  0 
  5  7  1  0  0  0  0 
  7  8  1  0  0  0  0 
  8  9  2  0  0  0  0 
  9 10  1  0  0  0  0 
 10 11  2  0  0  0  0 
 11 12  1  0  0  0  0 
 12 13  2  0  0  0  0 
  8 13  1  0  0  0  0 
 11 14  1  0  0  0  0 
 14 15  3  0  0  0  0 
  7 16  1  0  0  0  0 
 16 17  1  0  0  0  0 
 17 18  2  0  0  0  0 
 18 19  1  0  0  0  0 
 19 20  2  0  0  0  0 
 16 20  1  0  0  0  0 
 18 21  1  0  0  0  0 
  2 22  1  0  0  0  0 
 22 23  3  0  0  0  0 
M  CHG  1  18   1
M  CHG  1  21  -1
M  END
> <Rank>
1

> <Priority_score>
0.9199999999999999

> <Reaction_type>
N-oxidation

> <Parent_ID>
1

> <Parent_InChI>
InChI=1S/C17H11N5/c18-9-13-1-5-15(6-2-13)17(22-12-20-11-21-22)16-7-3-14(10-19)4-8-16/h1-8,11-12,17H

> <Parent_SMILES>
C1([H])=C(C([H])=C([H])C(=C1[H])C([H])(C2=C([H])C([H])=C(C([H])=C2[H])C#N)N3C([H])=NC([H])=N3)C#N

$$$$

  CDK     1017240909

  5  5  0  0  0  0  0  0  0  0999 V2000
   -1.2100    0.3900    0.0000 C   0  0  0  0  0  0  0  0  0  0  0  0
   -0.7500   -1.0300    0.0000 N   0  0  0  0  0  0  0  0  0  0  0  0
    0.7500   -1.0300    0.0000 C   0  0  0  0  0  0  0  0  0  0  0  0
    1.2100    0.3900    0.0000 N   0  0  0  0  0  0  0  0  0  0  0  0
    0.0000    1.2800    0.0000 N   0  0  0  0  0  0  0  0  0  0  0  0
  1  2  2  0  0  0  0 
  2  3  1  0  0  0  0 
  3  4  2  0  0  0  0 
  4  5  1  0  0  0  0 
  1  5  1  0  0  0  0 
M  END
> <Rank>
2

> <Priority_score>
0.8899999999999999

> <Reaction_type>
N-dealkylation

> <Parent_ID>
1

> <Parent_InChI>
InChI=1S/C17H11N5/c18-9-13-1-5-15(6-2-13)17(22-12-20-11-21-22)16-7-3-14(10-19)4-8-16/h1-8,11-12,17H

> <Parent_SMILES>
C1([H])=C(C([H])=C([H])C(=C1[H])C([H])(C2=C([H])C([H])=C(C([H])=C2[H])C#N)N3C([H])=NC([H])=N3)C#N

$$$$

  CDK     1017240909

 18 19  0  0  0  0  0  0  0  0999 V2000
    4.6238    1.1857    0.0000 C   0  0  0  0  0  0  0  0  0  0  0  0
    5.8933    0.4869    0.0000 C   0  0  0  0  0  0  0  0  0  0  0  0
    5.9608   -1.0100    0.0000 C   0  0  0  0  0  0  0  0  0  0  0  0
    4.6741   -1.7413    0.0000 C   0  0  0  0  0  0  0  0  0  0  0  0
    3.4045   -1.0424    0.0000 C   0  0  0  0  0  0  0  0  0  0  0  0
    3.3371    0.4544    0.0000 C   0  0  0  0  0  0  0  0  0  0  0  0
    2.1307   -1.8345    0.0000 C   0  0  0  0  0  0  0  0  0  0  0  0
    2.1798   -3.3337    0.0000 O   0  0  0  0  0  0  0  0  0  0  0  0
    0.8079   -1.1274    0.0000 C   0  0  0  0  0  0  0  0  0  0  0  0
    0.7783    0.3215    0.0000 C   0  0  0  0  0  0  0  0  0  0  0  0
   -0.4984    1.0702    0.0000 C   0  0  0  0  0  0  0  0  0  0  0  0
   -1.7609    0.2634    0.0000 C   0  0  0  0  0  0  0  0  0  0  0  0
   -1.7314   -1.1855    0.0000 C   0  0  0  0  0  0  0  0  0  0  0  0
   -0.4547   -1.9342    0.0000 C   0  0  0  0  0  0  0  0  0  0  0  0
   -3.0838    0.9705    0.0000 C   0  0  0  0  0  0  0  0  0  0  0  0
   -4.4067    1.6776    0.0000 N   0  0  0  0  0  0  0  0  0  0  0  0
    7.1672    1.2789    0.0000 C   0  0  0  0  0  0  0  0  0  0  0  0
    8.4410    2.0710    0.0000 N   0  0  0  0  0  0  0  0  0  0  0  0
  1  2  2  0  0  0  0 
  2  3  1  0  0  0  0 
  3  4  2  0  0  0  0 
  4  5  1  0  0  0  0 
  5  6  2  0  0  0  0 
  1  6  1  0  0  0  0 
  5  7  1  0  0  0  0 
  7  8  2  0  0  0  0 
  7  9  1  0  0  0  0 
  9 10  2  0  0  0  0 
 10 11  1  0  0  0  0 
 11 12  2  0  0  0  0 
 12 13  1  0  0  0  0 
 13 14  2  0  0  0  0 
  9 14  1  0  0  0  0 
 12 15  1  0  0  0  0 
 15 16  3  0  0  0  0 
  2 17  1  0  0  0  0 
 17 18  3  0  0  0  0 
M  END
> <Rank>
2

> <Priority_score>
0.8899999999999999

> <Reaction_type>
N-dealkylation

> <Parent_ID>
1

> <Parent_InChI>
InChI=1S/C17H11N5/c18-9-13-1-5-15(6-2-13)17(22-12-20-11-21-22)16-7-3-14(10-19)4-8-16/h1-8,11-12,17H

> <Parent_SMILES>
C1([H])=C(C([H])=C([H])C(=C1[H])C([H])(C2=C([H])C([H])=C(C([H])=C2[H])C#N)N3C([H])=NC([H])=N3)C#N

$$$$

  CDK     1017240909

 23 25  0  0  0  0  0  0  0  0999 V2000
   -0.9640   -3.0940    0.0000 C   0  0  0  0  0  0  0  0  0  0  0  0
   -1.0957   -1.6508    0.0000 C   0  0  0  0  0  0  0  0  0  0  0  0
    0.1067   -0.7569    0.0000 C   0  0  0  0  0  0  0  0  0  0  0  0
    1.4331   -1.4135    0.0000 C   0  0  0  0  0  0  0  0  0  0  0  0
    1.5648   -2.8567    0.0000 C   0  0  0  0  0  0  0  0  0  0  0  0
    0.3624   -3.7506    0.0000 C   0  0  0  0  0  0  0  0  0  0  0  0
    2.9343   -3.4687    0.0000 C   0  0  0  0  0  0  0  0  0  0  0  0
    4.1491   -2.5886    0.0000 C   0  0  0  0  0  0  0  0  0  0  0  0
    5.4647   -3.1962    0.0000 C   0  0  0  0  0  0  0  0  0  0  0  0
    6.6966   -2.3758    0.0000 C   0  0  0  0  0  0  0  0  0  0  0  0
    6.5237   -0.8875    0.0000 C   0  0  0  0  0  0  0  0  0  0  0  0
    5.2080   -0.2800    0.0000 C   0  0  0  0  0  0  0  0  0  0  0  0
    3.9761   -1.1003    0.0000 C   0  0  0  0  0  0  0  0  0  0  0  0
    7.7384   -0.0075    0.0000 C   0  0  0  0  0  0  0  0  0  0  0  0
    8.9531    0.8726    0.0000 N   0  0  0  0  0  0  0  0  0  0  0  0
    3.0891   -4.9607    0.0000 N   0  0  0  0  0  0  0  0  0  0  0  0
    4.5488   -4.6490    0.0000 C   0  0  0  0  0  0  0  0  0  0  0  0
    5.2988   -5.9481    0.0000 N   0  0  0  0  0  0  0  0  0  0  0  0
    4.2991   -7.0564    0.0000 C   0  0  0  0  0  0  0  0  0  0  0  0
    2.9233   -6.4536    0.0000 N   0  0  0  0  0  0  0  0  0  0  0  0
    1.5891   -4.9552    0.0000 O   0  0  0  0  0  0  0  0  0  0  0  0
   -2.4652   -1.0388    0.0000 C   0  0  0  0  0  0  0  0  0  0  0  0
   -3.8347   -0.4268    0.0000 N   0  0  0  0  0  0  0  0  0  0  0  0
  1  2  2  0  0  0  0 
  2  3  1  0  0  0  0 
  3  4  2  0  0  0  0 
  4  5  1  0  0  0  0 
  5  6  2  0  0  0  0 
  1  6  1  0  0  0  0 
  5  7  1  0  0  0  0 
  7  8  1  0  0  0  0 
  8  9  2  0  0  0  0 
  9 10  1  0  0  0  0 
 10 11  2  0  0  0  0 
 11 12  1  0  0  0  0 
 12 13  2  0  0  0  0 
  8 13  1  0  0  0  0 
 11 14  1  0  0  0  0 
 14 15  3  0  0  0  0 
  7 16  1  0  0  0  0 
 16 17  1  0  0  0  0 
 17 18  2  0  0  0  0 
 18 19  1  0  0  0  0 
 19 20  2  0  0  0  0 
 16 20  1  0  0  0  0 
 16 21  1  0  0  0  0 
  2 22  1  0  0  0  0 
 22 23  3  0  0  0  0 
M  CHG  1  16   1
M  CHG  1  21  -1
M  END
> <Rank>
2

> <Priority_score>
0.8899999999999999

> <Reaction_type>
N-oxidation

> <Parent_ID>
1

> <Parent_InChI>
InChI=1S/C17H11N5/c18-9-13-1-5-15(6-2-13)17(22-12-20-11-21-22)16-7-3-14(10-19)4-8-16/h1-8,11-12,17H

> <Parent_SMILES>
C1([H])=C(C([H])=C([H])C(=C1[H])C([H])(C2=C([H])C([H])=C(C([H])=C2[H])C#N)N3C([H])=NC([H])=N3)C#N

$$$$

  CDK     1017240909

 23 25  0  0  0  0  0  0  0  0999 V2000
    5.6905    0.3491    0.0000 C   0  0  0  0  0  0  0  0  0  0  0  0
    6.1178   -1.0357    0.0000 C   0  0  0  0  0  0  0  0  0  0  0  0
    5.1262   -2.1590    0.0000 C   0  0  0  0  0  0  0  0  0  0  0  0
    3.6927   -1.7908    0.0000 C   0  0  0  0  0  0  0  0  0  0  0  0
    3.2654   -0.4061    0.0000 C   0  0  0  0  0  0  0  0  0  0  0  0
    4.2570    0.7172    0.0000 C   0  0  0  0  0  0  0  0  0  0  0  0
    1.7989   -0.0906    0.0000 C   0  0  0  0  0  0  0  0  0  0  0  0
    0.3130   -0.2956    0.0000 C   0  0  0  0  0  0  0  0  0  0  0  0
   -0.5622    0.8594    0.0000 C   0  0  0  0  0  0  0  0  0  0  0  0
   -2.0351    0.7151    0.0000 C   0  0  0  0  0  0  0  0  0  0  0  0
   -2.5827   -0.6796    0.0000 C   0  0  0  0  0  0  0  0  0  0  0  0
   -1.7075   -1.8347    0.0000 C   0  0  0  0  0  0  0  0  0  0  0  0
   -0.2346   -1.6903    0.0000 C   0  0  0  0  0  0  0  0  0  0  0  0
   -4.0686   -0.8847    0.0000 C   0  0  0  0  0  0  0  0  0  0  0  0
   -5.5546   -1.0897    0.0000 N   0  0  0  0  0  0  0  0  0  0  0  0
    1.3390    1.3372    0.0000 N   0  0  0  0  0  0  0  0  0  0  0  0
   -0.0810    1.7972    0.0000 C   0  0  0  0  0  0  0  0  0  0  0  0
   -0.0810    3.2972    0.0000 N   0  0  0  0  0  0  0  0  0  0  0  0
    1.3390    3.7572    0.0000 C   0  0  0  0  0  0  0  0  0  0  0  0
    2.2290    2.5472    0.0000 N   0  0  0  0  0  0  0  0  0  0  0  0
    1.7429   -1.5895    0.0000 O   0  0  0  0  0  0  0  0  0  0  0  0
    7.5843   -1.3512    0.0000 C   0  0  0  0  0  0  0  0  0  0  0  0
    9.0507   -1.6667    0.0000 N   0  0  0  0  0  0  0  0  0  0  0  0
  1  2  2  0  0  0  0 
  2  3  1  0  0  0  0 
  3  4  2  0  0  0  0 
  4  5  1  0  0  0  0 
  5  6  2  0  0  0  0 
  1  6  1  0  0  0  0 
  5  7  1  0  0  0  0 
  7  8  1  0  0  0  0 
  8  9  2  0  0  0  0 
  9 10  1  0  0  0  0 
 10 11  2  0  0  0  0 
 11 12  1  0  0  0  0 
 12 13  2  0  0  0  0 
  8 13  1  0  0  0  0 
 11 14  1  0  0  0  0 
 14 15  3  0  0  0  0 
  7 16  1  0  0  0  0 
 16 17  1  0  0  0  0 
 17 18  2  0  0  0  0 
 18 19  1  0  0  0  0 
 19 20  2  0  0  0  0 
 16 20  1  0  0  0  0 
  7 21  1  0  0  0  0 
  2 22  1  0  0  0  0 
 22 23  3  0  0  0  0 
M  END
> <Rank>
2

> <Priority_score>
0.8899999999999999

> <Reaction_type>
aliphatic hydroxylation

> <Parent_ID>
1

> <Parent_InChI>
InChI=1S/C17H11N5/c18-9-13-1-5-15(6-2-13)17(22-12-20-11-21-22)16-7-3-14(10-19)4-8-16/h1-8,11-12,17H

> <Parent_SMILES>
C1([H])=C(C([H])=C([H])C(=C1[H])C([H])(C2=C([H])C([H])=C(C([H])=C2[H])C#N)N3C([H])=NC([H])=N3)C#N

$$$$

  CDK     1017240909

 23 25  0  0  0  0  0  0  0  0999 V2000
   -0.2848    2.9309    0.0000 C   0  0  0  0  0  0  0  0  0  0  0  0
   -0.7121    4.3156    0.0000 C   0  0  0  0  0  0  0  0  0  0  0  0
    0.2795    5.4389    0.0000 C   0  0  0  0  0  0  0  0  0  0  0  0
    1.7130    5.0708    0.0000 C   0  0  0  0  0  0  0  0  0  0  0  0
    2.1403    3.6860    0.0000 C   0  0  0  0  0  0  0  0  0  0  0  0
    1.1487    2.5627    0.0000 C   0  0  0  0  0  0  0  0  0  0  0  0
    3.6068    3.3705    0.0000 C   0  0  0  0  0  0  0  0  0  0  0  0
    4.0667    1.9428    0.0000 C   0  0  0  0  0  0  0  0  0  0  0  0
    3.0812    0.8803    0.0000 C   0  0  0  0  0  0  0  0  0  0  0  0
    3.4791   -0.5452    0.0000 C   0  0  0  0  0  0  0  0  0  0  0  0
    4.9477   -0.8423    0.0000 C   0  0  0  0  0  0  0  0  0  0  0  0
    5.9332    0.2202    0.0000 C   0  0  0  0  0  0  0  0  0  0  0  0
    5.5353    1.6457    0.0000 C   0  0  0  0  0  0  0  0  0  0  0  0
    5.4077   -2.2700    0.0000 C   0  0  0  0  0  0  0  0  0  0  0  0
    5.8677   -3.6978    0.0000 N   0  0  0  0  0  0  0  0  0  0  0  0
    4.6132    4.4827    0.0000 N   0  0  0  0  0  0  0  0  0  0  0  0
    4.3016    5.9425    0.0000 C   0  0  0  0  0  0  0  0  0  0  0  0
    5.6006    6.6925    0.0000 N   0  0  0  0  0  0  0  0  0  0  0  0
    6.7090    5.6927    0.0000 C   0  0  0  0  0  0  0  0  0  0  0  0
    6.1061    4.3170    0.0000 N   0  0  0  0  0  0  0  0  0  0  0  0
    6.8561    3.0179    0.0000 O   0  0  0  0  0  0  0  0  0  0  0  0
   -2.1786    4.6311    0.0000 C   0  0  0  0  0  0  0  0  0  0  0  0
   -3.6450    4.9467    0.0000 N   0  0  0  0  0  0  0  0  0  0  0  0
  1  2  2  0  0  0  0 
  2  3  1  0  0  0  0 
  3  4  2  0  0  0  0 
  4  5  1  0  0  0  0 
  5  6  2  0  0  0  0 
  1  6  1  0  0  0  0 
  5  7  1  0  0  0  0 
  7  8  1  0  0  0  0 
  8  9  2  0  0  0  0 
  9 10  1  0  0  0  0 
 10 11  2  0  0  0  0 
 11 12  1  0  0  0  0 
 12 13  2  0  0  0  0 
  8 13  1  0  0  0  0 
 11 14  1  0  0  0  0 
 14 15  3  0  0  0  0 
  7 16  1  0  0  0  0 
 16 17  1  0  0  0  0 
 17 18  2  0  0  0  0 
 18 19  1  0  0  0  0 
 19 20  2  0  0  0  0 
 16 20  1  0  0  0  0 
 20 21  1  0  0  0  0 
  2 22  1  0  0  0  0 
 22 23  3  0  0  0  0 
M  CHG  1  20   1
M  CHG  1  21  -1
M  END
> <Rank>
6

> <Priority_score>
0.5700000000000001

> <Reaction_type>
N-oxidation

> <Parent_ID>
1

> <Parent_InChI>
InChI=1S/C17H11N5/c18-9-13-1-5-15(6-2-13)17(22-12-20-11-21-22)16-7-3-14(10-19)4-8-16/h1-8,11-12,17H

> <Parent_SMILES>
C1([H])=C(C([H])=C([H])C(=C1[H])C([H])(C2=C([H])C([H])=C(C([H])=C2[H])C#N)N3C([H])=NC([H])=N3)C#N

$$$$

  CDK     1017240909

 23 25  0  0  0  0  0  0  0  0999 V2000
    6.4820    1.6926    0.0000 C   0  0  0  0  0  0  0  0  0  0  0  0
    6.1597    0.2798    0.0000 C   0  0  0  0  0  0  0  0  0  0  0  0
    4.7394   -0.1972    0.0000 C   0  0  0  0  0  0  0  0  0  0  0  0
    3.6820    0.8383    0.0000 C   0  0  0  0  0  0  0  0  0  0  0  0
    4.0043    2.2512    0.0000 C   0  0  0  0  0  0  0  0  0  0  0  0
    5.4246    2.7282    0.0000 C   0  0  0  0  0  0  0  0  0  0  0  0
    2.8920    3.2577    0.0000 C   0  0  0  0  0  0  0  0  0  0  0  0
    1.4643    2.7977    0.0000 C   0  0  0  0  0  0  0  0  0  0  0  0
    0.4018    3.7833    0.0000 C   0  0  0  0  0  0  0  0  0  0  0  0
   -1.0237    3.3853    0.0000 C   0  0  0  0  0  0  0  0  0  0  0  0
   -1.3208    1.9167    0.0000 C   0  0  0  0  0  0  0  0  0  0  0  0
   -0.2583    0.9312    0.0000 C   0  0  0  0  0  0  0  0  0  0  0  0
    1.1672    1.3291    0.0000 C   0  0  0  0  0  0  0  0  0  0  0  0
   -2.7485    1.4568    0.0000 C   0  0  0  0  0  0  0  0  0  0  0  0
   -4.1762    0.9968    0.0000 N   0  0  0  0  0  0  0  0  0  0  0  0
    3.2076    4.7241    0.0000 N   0  0  0  0  0  0  0  0  0  0  0  0
    2.2078    5.8325    0.0000 C   0  0  0  0  0  0  0  0  0  0  0  0
    2.9578    7.1315    0.0000 N   0  0  0  0  0  0  0  0  0  0  0  0
    4.4176    6.8199    0.0000 C   0  0  0  0  0  0  0  0  0  0  0  0
    4.5833    5.3270    0.0000 N   0  0  0  0  0  0  0  0  0  0  0  0
    0.7161    5.6751    0.0000 O   0  0  0  0  0  0  0  0  0  0  0  0
    7.2720   -0.7267    0.0000 C   0  0  0  0  0  0  0  0  0  0  0  0
    8.3842   -1.7332    0.0000 N   0  0  0  0  0  0  0  0  0  0  0  0
  1  2  2  0  0  0  0 
  2  3  1  0  0  0  0 
  3  4  2  0  0  0  0 
  4  5  1  0  0  0  0 
  5  6  2  0  0  0  0 
  1  6  1  0  0  0  0 
  5  7  1  0  0  0  0 
  7  8  1  0  0  0  0 
  8  9  2  0  0  0  0 
  9 10  1  0  0  0  0 
 10 11  2  0  0  0  0 
 11 12  1  0  0  0  0 
 12 13  2  0  0  0  0 
  8 13  1  0  0  0  0 
 11 14  1  0  0  0  0 
 14 15  3  0  0  0  0 
  7 16  1  0  0  0  0 
 16 17  1  0  0  0  0 
 17 18  2  0  0  0  0 
 18 19  1  0  0  0  0 
 19 20  2  0  0  0  0 
 16 20  1  0  0  0  0 
 17 21  1  0  0  0  0 
  2 22  1  0  0  0  0 
 22 23  3  0  0  0  0 
M  END
> <Rank>
7

> <Priority_score>
0.49

> <Reaction_type>
aromatic hydroxylation

> <Parent_ID>
1

> <Parent_InChI>
InChI=1S/C17H11N5/c18-9-13-1-5-15(6-2-13)17(22-12-20-11-21-22)16-7-3-14(10-19)4-8-16/h1-8,11-12,17H

> <Parent_SMILES>
C1([H])=C(C([H])=C([H])C(=C1[H])C([H])(C2=C([H])C([H])=C(C([H])=C2[H])C#N)N3C([H])=NC([H])=N3)C#N

$$$$

  CDK     1017240909

 23 25  0  0  0  0  0  0  0  0999 V2000
   -1.6169    2.5740    0.0000 C   0  0  0  0  0  0  0  0  0  0  0  0
   -2.0442    3.9587    0.0000 C   0  0  0  0  0  0  0  0  0  0  0  0
   -1.0526    5.0820    0.0000 C   0  0  0  0  0  0  0  0  0  0  0  0
    0.3809    4.7138    0.0000 C   0  0  0  0  0  0  0  0  0  0  0  0
    0.8082    3.3291    0.0000 C   0  0  0  0  0  0  0  0  0  0  0  0
   -0.1834    2.2058    0.0000 C   0  0  0  0  0  0  0  0  0  0  0  0
    2.2747    3.0136    0.0000 C   0  0  0  0  0  0  0  0  0  0  0  0
    2.7346    1.5858    0.0000 C   0  0  0  0  0  0  0  0  0  0  0  0
    1.7491    0.5234    0.0000 C   0  0  0  0  0  0  0  0  0  0  0  0
    2.1470   -0.9021    0.0000 C   0  0  0  0  0  0  0  0  0  0  0  0
    3.6156   -1.1992    0.0000 C   0  0  0  0  0  0  0  0  0  0  0  0
    4.6011   -0.1368    0.0000 C   0  0  0  0  0  0  0  0  0  0  0  0
    4.2032    1.2888    0.0000 C   0  0  0  0  0  0  0  0  0  0  0  0
    4.0756   -2.6270    0.0000 C   0  0  0  0  0  0  0  0  0  0  0  0
    4.5356   -4.0547    0.0000 N   0  0  0  0  0  0  0  0  0  0  0  0
    3.2811    4.1258    0.0000 N   0  0  0  0  0  0  0  0  0  0  0  0
    2.9695    5.5856    0.0000 C   0  0  0  0  0  0  0  0  0  0  0  0
    4.2685    6.3356    0.0000 N   0  0  0  0  0  0  0  0  0  0  0  0
    5.3769    5.3358    0.0000 C   0  0  0  0  0  0  0  0  0  0  0  0
    4.7740    3.9600    0.0000 N   0  0  0  0  0  0  0  0  0  0  0  0
    6.8434    5.6513    0.0000 O   0  0  0  0  0  0  0  0  0  0  0  0
   -3.5107    4.2742    0.0000 C   0  0  0  0  0  0  0  0  0  0  0  0
   -4.9771    4.5897    0.0000 N   0  0  0  0  0  0  0  0  0  0  0  0
  1  2  2  0  0  0  0 
  2  3  1  0  0  0  0 
  3  4  2  0  0  0  0 
  4  5  1  0  0  0  0 
  5  6  2  0  0  0  0 
  1  6  1  0  0  0  0 
  5  7  1  0  0  0  0 
  7  8  1  0  0  0  0 
  8  9  2  0  0  0  0 
  9 10  1  0  0  0  0 
 10 11  2  0  0  0  0 
 11 12  1  0  0  0  0 
 12 13  2  0  0  0  0 
  8 13  1  0  0  0  0 
 11 14  1  0  0  0  0 
 14 15  3  0  0  0  0 
  7 16  1  0  0  0  0 
 16 17  1  0  0  0  0 
 17 18  2  0  0  0  0 
 18 19  1  0  0  0  0 
 19 20  2  0  0  0  0 
 16 20  1  0  0  0  0 
 19 21  1  0  0  0  0 
  2 22  1  0  0  0  0 
 22 23  3  0  0  0  0 
M  END
> <Rank>
8

> <Priority_score>
0.41000000000000003

> <Reaction_type>
aromatic hydroxylation

> <Parent_ID>
1

> <Parent_InChI>
InChI=1S/C17H11N5/c18-9-13-1-5-15(6-2-13)17(22-12-20-11-21-22)16-7-3-14(10-19)4-8-16/h1-8,11-12,17H

> <Parent_SMILES>
C1([H])=C(C([H])=C([H])C(=C1[H])C([H])(C2=C([H])C([H])=C(C([H])=C2[H])C#N)N3C([H])=NC([H])=N3)C#N

$$$$

  CDK     1017240909

 23 25  0  0  0  0  0  0  0  0999 V2000
    0.4371    2.2280    0.0000 C   0  0  0  0  0  0  0  0  0  0  0  0
    0.7594    3.6409    0.0000 C   0  0  0  0  0  0  0  0  0  0  0  0
    2.1798    4.1179    0.0000 C   0  0  0  0  0  0  0  0  0  0  0  0
    3.2372    3.0823    0.0000 C   0  0  0  0  0  0  0  0  0  0  0  0
    2.9149    1.6694    0.0000 C   0  0  0  0  0  0  0  0  0  0  0  0
    1.4945    1.1924    0.0000 C   0  0  0  0  0  0  0  0  0  0  0  0
    4.0271    0.6629    0.0000 C   0  0  0  0  0  0  0  0  0  0  0  0
    5.4548    1.1229    0.0000 C   0  0  0  0  0  0  0  0  0  0  0  0
    6.5674    0.1155    0.0000 C   0  0  0  0  0  0  0  0  0  0  0  0
    7.9951    0.5755    0.0000 C   0  0  0  0  0  0  0  0  0  0  0  0
    8.3103    2.0428    0.0000 C   0  0  0  0  0  0  0  0  0  0  0  0
    9.7380    2.5028    0.0000 C   0  0  0  0  0  0  0  0  0  0  0  0
   11.1658    2.9628    0.0000 N   0  0  0  0  0  0  0  0  0  0  0  0
    7.1978    3.0502    0.0000 C   0  0  0  0  0  0  0  0  0  0  0  0
    5.7701    2.5903    0.0000 C   0  0  0  0  0  0  0  0  0  0  0  0
    7.5136    4.5166    0.0000 O   0  0  0  0  0  0  0  0  0  0  0  0
    3.7116   -0.8035    0.0000 N   0  0  0  0  0  0  0  0  0  0  0  0
    4.7113   -1.9119    0.0000 C   0  0  0  0  0  0  0  0  0  0  0  0
    3.9613   -3.2109    0.0000 N   0  0  0  0  0  0  0  0  0  0  0  0
    2.5016   -2.8993    0.0000 C   0  0  0  0  0  0  0  0  0  0  0  0
    2.3358   -1.4064    0.0000 N   0  0  0  0  0  0  0  0  0  0  0  0
   -0.3528    4.6473    0.0000 C   0  0  0  0  0  0  0  0  0  0  0  0
   -1.4650    5.6538    0.0000 N   0  0  0  0  0  0  0  0  0  0  0  0
  1  2  2  0  0  0  0 
  2  3  1  0  0  0  0 
  3  4  2  0  0  0  0 
  4  5  1  0  0  0  0 
  5  6  2  0  0  0  0 
  1  6  1  0  0  0  0 
  5  7  1  0  0  0  0 
  7  8  1  0  0  0  0 
  8  9  2  0  0  0  0 
  9 10  1  0  0  0  0 
 10 11  2  0  0  0  0 
 11 12  1  0  0  0  0 
 12 13  3  0  0  0  0 
 11 14  1  0  0  0  0 
 14 15  2  0  0  0  0 
  8 15  1  0  0  0  0 
 14 16  1  0  0  0  0 
  7 17  1  0  0  0  0 
 17 18  1  0  0  0  0 
 18 19  2  0  0  0  0 
 19 20  1  0  0  0  0 
 20 21  2  0  0  0  0 
 17 21  1  0  0  0  0 
  2 22  1  0  0  0  0 
 22 23  3  0  0  0  0 
M  END
> <Rank>
9

> <Priority_score>
0.4

> <Reaction_type>
aromatic hydroxylation

> <Parent_ID>
1

> <Parent_InChI>
InChI=1S/C17H11N5/c18-9-13-1-5-15(6-2-13)17(22-12-20-11-21-22)16-7-3-14(10-19)4-8-16/h1-8,11-12,17H

> <Parent_SMILES>
C1([H])=C(C([H])=C([H])C(=C1[H])C([H])(C2=C([H])C([H])=C(C([H])=C2[H])C#N)N3C([H])=NC([H])=N3)C#N

$$$$

  CDK     1017240909

 23 25  0  0  0  0  0  0  0  0999 V2000
    0.4371    2.2280    0.0000 C   0  0  0  0  0  0  0  0  0  0  0  0
    0.7594    3.6409    0.0000 C   0  0  0  0  0  0  0  0  0  0  0  0
    2.1798    4.1179    0.0000 C   0  0  0  0  0  0  0  0  0  0  0  0
    3.2372    3.0823    0.0000 C   0  0  0  0  0  0  0  0  0  0  0  0
    2.9149    1.6694    0.0000 C   0  0  0  0  0  0  0  0  0  0  0  0
    1.4945    1.1924    0.0000 C   0  0  0  0  0  0  0  0  0  0  0  0
    4.0271    0.6629    0.0000 C   0  0  0  0  0  0  0  0  0  0  0  0
    5.4548    1.1229    0.0000 C   0  0  0  0  0  0  0  0  0  0  0  0
    5.7701    2.5903    0.0000 C   0  0  0  0  0  0  0  0  0  0  0  0
    7.1978    3.0502    0.0000 C   0  0  0  0  0  0  0  0  0  0  0  0
    8.3103    2.0428    0.0000 C   0  0  0  0  0  0  0  0  0  0  0  0
    7.9951    0.5755    0.0000 C   0  0  0  0  0  0  0  0  0  0  0  0
    6.5674    0.1155    0.0000 C   0  0  0  0  0  0  0  0  0  0  0  0
    6.2516   -1.3509    0.0000 O   0  0  0  0  0  0  0  0  0  0  0  0
    9.7380    2.5028    0.0000 C   0  0  0  0  0  0  0  0  0  0  0  0
   11.1658    2.9628    0.0000 N   0  0  0  0  0  0  0  0  0  0  0  0
    3.7116   -0.8035    0.0000 N   0  0  0  0  0  0  0  0  0  0  0  0
    4.7113   -1.9119    0.0000 C   0  0  0  0  0  0  0  0  0  0  0  0
    3.9613   -3.2109    0.0000 N   0  0  0  0  0  0  0  0  0  0  0  0
    2.5016   -2.8993    0.0000 C   0  0  0  0  0  0  0  0  0  0  0  0
    2.3358   -1.4064    0.0000 N   0  0  0  0  0  0  0  0  0  0  0  0
   -0.3528    4.6473    0.0000 C   0  0  0  0  0  0  0  0  0  0  0  0
   -1.4650    5.6538    0.0000 N   0  0  0  0  0  0  0  0  0  0  0  0
  1  2  2  0  0  0  0 
  2  3  1  0  0  0  0 
  3  4  2  0  0  0  0 
  4  5  1  0  0  0  0 
  5  6  2  0  0  0  0 
  1  6  1  0  0  0  0 
  5  7  1  0  0  0  0 
  7  8  1  0  0  0  0 
  8  9  2  0  0  0  0 
  9 10  1  0  0  0  0 
 10 11  2  0  0  0  0 
 11 12  1  0  0  0  0 
 12 13  2  0  0  0  0 
  8 13  1  0  0  0  0 
 13 14  1  0  0  0  0 
 11 15  1  0  0  0  0 
 15 16  3  0  0  0  0 
  7 17  1  0  0  0  0 
 17 18  1  0  0  0  0 
 18 19  2  0  0  0  0 
 19 20  1  0  0  0  0 
 20 21  2  0  0  0  0 
 17 21  1  0  0  0  0 
  2 22  1  0  0  0  0 
 22 23  3  0  0  0  0 
M  END
> <Rank>
10

> <Priority_score>
0.27

> <Reaction_type>
aromatic hydroxylation

> <Parent_ID>
1

> <Parent_InChI>
InChI=1S/C17H11N5/c18-9-13-1-5-15(6-2-13)17(22-12-20-11-21-22)16-7-3-14(10-19)4-8-16/h1-8,11-12,17H

> <Parent_SMILES>
C1([H])=C(C([H])=C([H])C(=C1[H])C([H])(C2=C([H])C([H])=C(C([H])=C2[H])C#N)N3C([H])=NC([H])=N3)C#N

$$$$
