
  CDK     1017240224

 27 29  0  0  0  0  0  0  0  0999 V2000
   -3.8989    1.5002    0.0000 C   0  0  0  0  0  0  0  0  0  0  0  0
   -2.6000    0.7500    0.0000 C   0  0  0  0  0  0  0  0  0  0  0  0
   -2.6000   -0.7500    0.0000 C   0  0  0  0  0  0  0  0  0  0  0  0
   -1.3000   -1.5000    0.0000 C   0  0  0  0  0  0  0  0  0  0  0  0
    0.0000   -0.7500    0.0000 C   0  0  0  0  0  0  0  0  0  0  0  0
    0.0000    0.7500    0.0000 C   0  0  0  0  0  0  0  0  0  0  0  0
   -1.3000    1.5000    0.0000 C   0  0  0  0  0  0  0  0  0  0  0  0
    1.3000    1.5000    0.0000 C   0  0  0  0  0  0  0  0  0  0  0  0
    2.2641    2.6492    0.0000 C   0  0  0  0  0  0  0  0  0  0  0  0
    2.6000    0.7500    0.0000 C   0  0  0  0  0  0  0  0  0  0  0  0
    2.6000   -0.7500    0.0000 C   0  0  0  0  0  0  0  0  0  0  0  0
    1.3000   -1.5000    0.0000 C   0  0  0  0  0  0  0  0  0  0  0  0
    0.3359   -2.6492    0.0000 C   0  0  0  0  0  0  0  0  0  0  0  0
    2.2641   -2.6492    0.0000 C   0  0  0  0  0  0  0  0  0  0  0  0
    0.3359    2.6492    0.0000 C   0  0  0  0  0  0  0  0  0  0  0  0
    0.8491    4.0587    0.0000 O   0  0  0  0  0  0  0  0  0  0  0  0
   -3.8989   -1.5002    0.0000 C   0  0  0  0  0  0  0  0  0  0  0  0
   -5.1981   -0.7504    0.0000 C   0  0  0  0  0  0  0  0  0  0  0  0
   -3.8987   -3.0002    0.0000 C   0  0  0  0  0  0  0  0  0  0  0  0
   -5.1624   -3.7095    0.0000 C   0  0  0  0  0  0  0  0  0  0  0  0
   -5.2206   -5.1884    0.0000 C   0  0  0  0  0  0  0  0  0  0  0  0
   -3.9137   -5.9213    0.0000 C   0  0  0  0  0  0  0  0  0  0  0  0
   -2.6500   -5.2120    0.0000 C   0  0  0  0  0  0  0  0  0  0  0  0
   -2.5918   -3.7331    0.0000 C   0  0  0  0  0  0  0  0  0  0  0  0
   -3.9135   -7.4213    0.0000 C   0  0  0  0  0  0  0  0  0  0  0  0
   -2.6143   -8.1711    0.0000 O   0  0  0  0  0  0  0  0  0  0  0  0
   -5.2124   -8.1715    0.0000 O   0  0  0  0  0  0  0  0  0  0  0  0
  1  2  1  0  0  0  0 
  2  3  2  0  0  0  0 
  3  4  1  0  0  0  0 
  4  5  2  0  0  0  0 
  5  6  1  0  0  0  0 
  6  7  2  0  0  0  0 
  2  7  1  0  0  0  0 
  6  8  1  0  0  0  0 
  8  9  1  0  0  0  0 
  8 10  1  0  0  0  0 
 10 11  1  0  0  0  0 
 11 12  1  0  0  0  0 
  5 12  1  0  0  0  0 
 12 13  1  0  0  0  0 
 12 14  1  0  0  0  0 
  8 15  1  0  0  0  0 
 15 16  1  0  0  0  0 
  3 17  1  0  0  0  0 
 17 18  2  0  0  0  0 
 17 19  1  0  0  0  0 
 19 20  2  0  0  0  0 
 20 21  1  0  0  0  0 
 21 22  2  0  0  0  0 
 22 23  1  0  0  0  0 
 23 24  2  0  0  0  0 
 19 24  1  0  0  0  0 
 22 25  1  0  0  0  0 
 25 26  2  0  0  0  0 
 25 27  1  0  0  0  0 
M  END
> <Rank>
1

> <Priority_score>
1.83

> <Reaction_type>
aliphatic hydroxylation

> <Parent_ID>
1

> <Parent_InChI>
InChI=1S/C24H28O2/c1-15-13-20-21(24(5,6)12-11-23(20,3)4)14-19(15)16(2)17-7-9-18(10-8-17)22(25)26/h7-10,13-14H,2,11-12H2,1,3-6H3,(H,25,26)

> <Parent_SMILES>
C([H])([H])([H])C1=C(C([H])=C2C(=C1[H])C(C([H])([H])[H])(C([H])([H])[H])C([H])([H])C([H])([H])C2(C([H])([H])[H])C([H])([H])[H])C(=C([H])[H])C3=C([H])C([H])=C(C([H])=C3[H])C(=O)O[H]

$$$$

  CDK     1017240224

 27 29  0  0  0  0  0  0  0  0999 V2000
   -3.8989    1.5002    0.0000 C   0  0  0  0  0  0  0  0  0  0  0  0
   -2.6000    0.7500    0.0000 C   0  0  0  0  0  0  0  0  0  0  0  0
   -2.6000   -0.7500    0.0000 C   0  0  0  0  0  0  0  0  0  0  0  0
   -1.3000   -1.5000    0.0000 C   0  0  0  0  0  0  0  0  0  0  0  0
    0.0000   -0.7500    0.0000 C   0  0  0  0  0  0  0  0  0  0  0  0
    0.0000    0.7500    0.0000 C   0  0  0  0  0  0  0  0  0  0  0  0
   -1.3000    1.5000    0.0000 C   0  0  0  0  0  0  0  0  0  0  0  0
    1.3000    1.5000    0.0000 C   0  0  0  0  0  0  0  0  0  0  0  0
    2.2641    2.6492    0.0000 C   0  0  0  0  0  0  0  0  0  0  0  0
    0.3359    2.6492    0.0000 C   0  0  0  0  0  0  0  0  0  0  0  0
    2.6000    0.7500    0.0000 C   0  0  0  0  0  0  0  0  0  0  0  0
    2.6000   -0.7500    0.0000 C   0  0  0  0  0  0  0  0  0  0  0  0
    1.3000   -1.5000    0.0000 C   0  0  0  0  0  0  0  0  0  0  0  0
    0.3359   -2.6492    0.0000 C   0  0  0  0  0  0  0  0  0  0  0  0
    2.2641   -2.6492    0.0000 C   0  0  0  0  0  0  0  0  0  0  0  0
    3.8989    1.5002    0.0000 O   0  0  0  0  0  0  0  0  0  0  0  0
   -3.8989   -1.5002    0.0000 C   0  0  0  0  0  0  0  0  0  0  0  0
   -5.1981   -0.7504    0.0000 C   0  0  0  0  0  0  0  0  0  0  0  0
   -3.8987   -3.0002    0.0000 C   0  0  0  0  0  0  0  0  0  0  0  0
   -5.1624   -3.7095    0.0000 C   0  0  0  0  0  0  0  0  0  0  0  0
   -5.2206   -5.1884    0.0000 C   0  0  0  0  0  0  0  0  0  0  0  0
   -3.9137   -5.9213    0.0000 C   0  0  0  0  0  0  0  0  0  0  0  0
   -2.6500   -5.2120    0.0000 C   0  0  0  0  0  0  0  0  0  0  0  0
   -2.5918   -3.7331    0.0000 C   0  0  0  0  0  0  0  0  0  0  0  0
   -3.9135   -7.4213    0.0000 C   0  0  0  0  0  0  0  0  0  0  0  0
   -2.6143   -8.1711    0.0000 O   0  0  0  0  0  0  0  0  0  0  0  0
   -5.2124   -8.1715    0.0000 O   0  0  0  0  0  0  0  0  0  0  0  0
  1  2  1  0  0  0  0 
  2  3  2  0  0  0  0 
  3  4  1  0  0  0  0 
  4  5  2  0  0  0  0 
  5  6  1  0  0  0  0 
  6  7  2  0  0  0  0 
  2  7  1  0  0  0  0 
  6  8  1  0  0  0  0 
  8  9  1  0  0  0  0 
  8 10  1  0  0  0  0 
  8 11  1  0  0  0  0 
 11 12  1  0  0  0  0 
 12 13  1  0  0  0  0 
  5 13  1  0  0  0  0 
 13 14  1  0  0  0  0 
 13 15  1  0  0  0  0 
 11 16  1  0  0  0  0 
  3 17  1  0  0  0  0 
 17 18  2  0  0  0  0 
 17 19  1  0  0  0  0 
 19 20  2  0  0  0  0 
 20 21  1  0  0  0  0 
 21 22  2  0  0  0  0 
 22 23  1  0  0  0  0 
 23 24  2  0  0  0  0 
 19 24  1  0  0  0  0 
 22 25  1  0  0  0  0 
 25 26  2  0  0  0  0 
 25 27  1  0  0  0  0 
M  END
> <Rank>
2

> <Priority_score>
1.58

> <Reaction_type>
aliphatic hydroxylation

> <Parent_ID>
1

> <Parent_InChI>
InChI=1S/C24H28O2/c1-15-13-20-21(24(5,6)12-11-23(20,3)4)14-19(15)16(2)17-7-9-18(10-8-17)22(25)26/h7-10,13-14H,2,11-12H2,1,3-6H3,(H,25,26)

> <Parent_SMILES>
C([H])([H])([H])C1=C(C([H])=C2C(=C1[H])C(C([H])([H])[H])(C([H])([H])[H])C([H])([H])C([H])([H])C2(C([H])([H])[H])C([H])([H])[H])C(=C([H])[H])C3=C([H])C([H])=C(C([H])=C3[H])C(=O)O[H]

$$$$

  CDK     1017240224

 27 29  0  0  0  0  0  0  0  0999 V2000
   -5.1981    0.7504    0.0000 C   0  0  0  0  0  0  0  0  0  0  0  0
   -3.8989    1.5002    0.0000 C   0  0  0  0  0  0  0  0  0  0  0  0
   -3.8987    3.0002    0.0000 C   0  0  0  0  0  0  0  0  0  0  0  0
   -2.6347    3.7091    0.0000 C   0  0  0  0  0  0  0  0  0  0  0  0
   -2.5761    5.1879    0.0000 C   0  0  0  0  0  0  0  0  0  0  0  0
   -3.8827    5.9213    0.0000 C   0  0  0  0  0  0  0  0  0  0  0  0
   -5.1467    5.2124    0.0000 C   0  0  0  0  0  0  0  0  0  0  0  0
   -5.2053    3.7335    0.0000 C   0  0  0  0  0  0  0  0  0  0  0  0
   -3.8825    7.4213    0.0000 C   0  0  0  0  0  0  0  0  0  0  0  0
   -2.5833    8.1711    0.0000 O   0  0  0  0  0  0  0  0  0  0  0  0
   -5.1814    8.1715    0.0000 O   0  0  0  0  0  0  0  0  0  0  0  0
   -2.6000    0.7500    0.0000 C   0  0  0  0  0  0  0  0  0  0  0  0
   -2.6000   -0.7500    0.0000 C   0  0  0  0  0  0  0  0  0  0  0  0
   -1.3000   -1.5000    0.0000 C   0  0  0  0  0  0  0  0  0  0  0  0
    0.0000   -0.7500    0.0000 C   0  0  0  0  0  0  0  0  0  0  0  0
    0.0000    0.7500    0.0000 C   0  0  0  0  0  0  0  0  0  0  0  0
   -1.3000    1.5000    0.0000 C   0  0  0  0  0  0  0  0  0  0  0  0
    1.3000    1.5000    0.0000 C   0  0  0  0  0  0  0  0  0  0  0  0
    2.2641    2.6492    0.0000 C   0  0  0  0  0  0  0  0  0  0  0  0
    0.3359    2.6492    0.0000 C   0  0  0  0  0  0  0  0  0  0  0  0
    2.6000    0.7500    0.0000 C   0  0  0  0  0  0  0  0  0  0  0  0
    2.6000   -0.7500    0.0000 C   0  0  0  0  0  0  0  0  0  0  0  0
    1.3000   -1.5000    0.0000 C   0  0  0  0  0  0  0  0  0  0  0  0
    0.3359   -2.6492    0.0000 C   0  0  0  0  0  0  0  0  0  0  0  0
    2.2641   -2.6492    0.0000 C   0  0  0  0  0  0  0  0  0  0  0  0
   -3.8989   -1.5002    0.0000 C   0  0  0  0  0  0  0  0  0  0  0  0
   -3.8987   -3.0002    0.0000 O   0  0  0  0  0  0  0  0  0  0  0  0
  1  2  2  0  0  0  0 
  2  3  1  0  0  0  0 
  3  4  2  0  0  0  0 
  4  5  1  0  0  0  0 
  5  6  2  0  0  0  0 
  6  7  1  0  0  0  0 
  7  8  2  0  0  0  0 
  3  8  1  0  0  0  0 
  6  9  1  0  0  0  0 
  9 10  2  0  0  0  0 
  9 11  1  0  0  0  0 
  2 12  1  0  0  0  0 
 12 13  2  0  0  0  0 
 13 14  1  0  0  0  0 
 14 15  2  0  0  0  0 
 15 16  1  0  0  0  0 
 16 17  2  0  0  0  0 
 12 17  1  0  0  0  0 
 16 18  1  0  0  0  0 
 18 19  1  0  0  0  0 
 18 20  1  0  0  0  0 
 18 21  1  0  0  0  0 
 21 22  1  0  0  0  0 
 22 23  1  0  0  0  0 
 15 23  1  0  0  0  0 
 23 24  1  0  0  0  0 
 23 25  1  0  0  0  0 
 13 26  1  0  0  0  0 
 26 27  1  0  0  0  0 
M  END
> <Rank>
3

> <Priority_score>
1.1325

> <Reaction_type>
aliphatic hydroxylation

> <Parent_ID>
1

> <Parent_InChI>
InChI=1S/C24H28O2/c1-15-13-20-21(24(5,6)12-11-23(20,3)4)14-19(15)16(2)17-7-9-18(10-8-17)22(25)26/h7-10,13-14H,2,11-12H2,1,3-6H3,(H,25,26)

> <Parent_SMILES>
C([H])([H])([H])C1=C(C([H])=C2C(=C1[H])C(C([H])([H])[H])(C([H])([H])[H])C([H])([H])C([H])([H])C2(C([H])([H])[H])C([H])([H])[H])C(=C([H])[H])C3=C([H])C([H])=C(C([H])=C3[H])C(=O)O[H]

$$$$

  CDK     1017240224

 27 29  0  0  0  0  0  0  0  0999 V2000
   -3.8989    1.5002    0.0000 C   0  0  0  0  0  0  0  0  0  0  0  0
   -2.6000    0.7500    0.0000 C   0  0  0  0  0  0  0  0  0  0  0  0
   -2.6000   -0.7500    0.0000 C   0  0  0  0  0  0  0  0  0  0  0  0
   -1.3000   -1.5000    0.0000 C   0  0  0  0  0  0  0  0  0  0  0  0
    0.0000   -0.7500    0.0000 C   0  0  0  0  0  0  0  0  0  0  0  0
    0.0000    0.7500    0.0000 C   0  0  0  0  0  0  0  0  0  0  0  0
   -1.3000    1.5000    0.0000 C   0  0  0  0  0  0  0  0  0  0  0  0
    1.3000    1.5000    0.0000 C   0  0  0  0  0  0  0  0  0  0  0  0
    2.2641    2.6492    0.0000 C   0  0  0  0  0  0  0  0  0  0  0  0
    0.3359    2.6492    0.0000 C   0  0  0  0  0  0  0  0  0  0  0  0
    2.6000    0.7500    0.0000 C   0  0  0  0  0  0  0  0  0  0  0  0
    2.6000   -0.7500    0.0000 C   0  0  0  0  0  0  0  0  0  0  0  0
    1.3000   -1.5000    0.0000 C   0  0  0  0  0  0  0  0  0  0  0  0
    0.3359   -2.6492    0.0000 C   0  0  0  0  0  0  0  0  0  0  0  0
    2.2641   -2.6492    0.0000 C   0  0  0  0  0  0  0  0  0  0  0  0
    3.8989   -1.5002    0.0000 O   0  0  0  0  0  0  0  0  0  0  0  0
   -3.8989   -1.5002    0.0000 C   0  0  0  0  0  0  0  0  0  0  0  0
   -5.1981   -0.7504    0.0000 C   0  0  0  0  0  0  0  0  0  0  0  0
   -3.8987   -3.0002    0.0000 C   0  0  0  0  0  0  0  0  0  0  0  0
   -5.1624   -3.7095    0.0000 C   0  0  0  0  0  0  0  0  0  0  0  0
   -5.2206   -5.1884    0.0000 C   0  0  0  0  0  0  0  0  0  0  0  0
   -3.9137   -5.9213    0.0000 C   0  0  0  0  0  0  0  0  0  0  0  0
   -2.6500   -5.2120    0.0000 C   0  0  0  0  0  0  0  0  0  0  0  0
   -2.5918   -3.7331    0.0000 C   0  0  0  0  0  0  0  0  0  0  0  0
   -3.9135   -7.4213    0.0000 C   0  0  0  0  0  0  0  0  0  0  0  0
   -2.6143   -8.1711    0.0000 O   0  0  0  0  0  0  0  0  0  0  0  0
   -5.2124   -8.1715    0.0000 O   0  0  0  0  0  0  0  0  0  0  0  0
  1  2  1  0  0  0  0 
  2  3  2  0  0  0  0 
  3  4  1  0  0  0  0 
  4  5  2  0  0  0  0 
  5  6  1  0  0  0  0 
  6  7  2  0  0  0  0 
  2  7  1  0  0  0  0 
  6  8  1  0  0  0  0 
  8  9  1  0  0  0  0 
  8 10  1  0  0  0  0 
  8 11  1  0  0  0  0 
 11 12  1  0  0  0  0 
 12 13  1  0  0  0  0 
  5 13  1  0  0  0  0 
 13 14  1  0  0  0  0 
 13 15  1  0  0  0  0 
 12 16  1  0  0  0  0 
  3 17  1  0  0  0  0 
 17 18  2  0  0  0  0 
 17 19  1  0  0  0  0 
 19 20  2  0  0  0  0 
 20 21  1  0  0  0  0 
 21 22  2  0  0  0  0 
 22 23  1  0  0  0  0 
 23 24  2  0  0  0  0 
 19 24  1  0  0  0  0 
 22 25  1  0  0  0  0 
 25 26  2  0  0  0  0 
 25 27  1  0  0  0  0 
M  END
> <Rank>
4

> <Priority_score>
1.06

> <Reaction_type>
aliphatic hydroxylation

> <Parent_ID>
1

> <Parent_InChI>
InChI=1S/C24H28O2/c1-15-13-20-21(24(5,6)12-11-23(20,3)4)14-19(15)16(2)17-7-9-18(10-8-17)22(25)26/h7-10,13-14H,2,11-12H2,1,3-6H3,(H,25,26)

> <Parent_SMILES>
C([H])([H])([H])C1=C(C([H])=C2C(=C1[H])C(C([H])([H])[H])(C([H])([H])[H])C([H])([H])C([H])([H])C2(C([H])([H])[H])C([H])([H])[H])C(=C([H])[H])C3=C([H])C([H])=C(C([H])=C3[H])C(=O)O[H]

$$$$

  CDK     1017240224

 27 29  0  0  0  0  0  0  0  0999 V2000
   -3.8989    1.5002    0.0000 C   0  0  0  0  0  0  0  0  0  0  0  0
   -2.6000    0.7500    0.0000 C   0  0  0  0  0  0  0  0  0  0  0  0
   -2.6000   -0.7500    0.0000 C   0  0  0  0  0  0  0  0  0  0  0  0
   -1.3000   -1.5000    0.0000 C   0  0  0  0  0  0  0  0  0  0  0  0
    0.0000   -0.7500    0.0000 C   0  0  0  0  0  0  0  0  0  0  0  0
    0.0000    0.7500    0.0000 C   0  0  0  0  0  0  0  0  0  0  0  0
   -1.3000    1.5000    0.0000 C   0  0  0  0  0  0  0  0  0  0  0  0
    1.3000    1.5000    0.0000 C   0  0  0  0  0  0  0  0  0  0  0  0
    2.2641    2.6492    0.0000 C   0  0  0  0  0  0  0  0  0  0  0  0
    0.3359    2.6492    0.0000 C   0  0  0  0  0  0  0  0  0  0  0  0
    2.6000    0.7500    0.0000 C   0  0  0  0  0  0  0  0  0  0  0  0
    2.6000   -0.7500    0.0000 C   0  0  0  0  0  0  0  0  0  0  0  0
    1.3000   -1.5000    0.0000 C   0  0  0  0  0  0  0  0  0  0  0  0
    0.3359   -2.6492    0.0000 C   0  0  0  0  0  0  0  0  0  0  0  0
    2.2641   -2.6492    0.0000 C   0  0  0  0  0  0  0  0  0  0  0  0
    3.7413   -2.3889    0.0000 O   0  0  0  0  0  0  0  0  0  0  0  0
   -3.8989   -1.5002    0.0000 C   0  0  0  0  0  0  0  0  0  0  0  0
   -5.1981   -0.7504    0.0000 C   0  0  0  0  0  0  0  0  0  0  0  0
   -3.8987   -3.0002    0.0000 C   0  0  0  0  0  0  0  0  0  0  0  0
   -5.1624   -3.7095    0.0000 C   0  0  0  0  0  0  0  0  0  0  0  0
   -5.2206   -5.1884    0.0000 C   0  0  0  0  0  0  0  0  0  0  0  0
   -3.9137   -5.9213    0.0000 C   0  0  0  0  0  0  0  0  0  0  0  0
   -2.6500   -5.2120    0.0000 C   0  0  0  0  0  0  0  0  0  0  0  0
   -2.5918   -3.7331    0.0000 C   0  0  0  0  0  0  0  0  0  0  0  0
   -3.9135   -7.4213    0.0000 C   0  0  0  0  0  0  0  0  0  0  0  0
   -2.6143   -8.1711    0.0000 O   0  0  0  0  0  0  0  0  0  0  0  0
   -5.2124   -8.1715    0.0000 O   0  0  0  0  0  0  0  0  0  0  0  0
  1  2  1  0  0  0  0 
  2  3  2  0  0  0  0 
  3  4  1  0  0  0  0 
  4  5  2  0  0  0  0 
  5  6  1  0  0  0  0 
  6  7  2  0  0  0  0 
  2  7  1  0  0  0  0 
  6  8  1  0  0  0  0 
  8  9  1  0  0  0  0 
  8 10  1  0  0  0  0 
  8 11  1  0  0  0  0 
 11 12  1  0  0  0  0 
 12 13  1  0  0  0  0 
  5 13  1  0  0  0  0 
 13 14  1  0  0  0  0 
 13 15  1  0  0  0  0 
 15 16  1  0  0  0  0 
  3 17  1  0  0  0  0 
 17 18  2  0  0  0  0 
 17 19  1  0  0  0  0 
 19 20  2  0  0  0  0 
 20 21  1  0  0  0  0 
 21 22  2  0  0  0  0 
 22 23  1  0  0  0  0 
 23 24  2  0  0  0  0 
 19 24  1  0  0  0  0 
 22 25  1  0  0  0  0 
 25 26  2  0  0  0  0 
 25 27  1  0  0  0  0 
M  END
> <Rank>
5

> <Priority_score>
0.75

> <Reaction_type>
aliphatic hydroxylation

> <Parent_ID>
1

> <Parent_InChI>
InChI=1S/C24H28O2/c1-15-13-20-21(24(5,6)12-11-23(20,3)4)14-19(15)16(2)17-7-9-18(10-8-17)22(25)26/h7-10,13-14H,2,11-12H2,1,3-6H3,(H,25,26)

> <Parent_SMILES>
C([H])([H])([H])C1=C(C([H])=C2C(=C1[H])C(C([H])([H])[H])(C([H])([H])[H])C([H])([H])C([H])([H])C2(C([H])([H])[H])C([H])([H])[H])C(=C([H])[H])C3=C([H])C([H])=C(C([H])=C3[H])C(=O)O[H]

$$$$

  CDK     1017240224

 27 30  0  0  0  0  0  0  0  0999 V2000
   -1.3000   -2.9996    0.0000 C   0  0  0  0  0  0  0  0  0  0  0  0
   -1.3007   -1.4996    0.0000 C   0  0  0  0  0  0  0  0  0  0  0  0
   -2.6000   -0.7500    0.0000 C   0  0  0  0  0  0  0  0  0  0  0  0
   -2.6000    0.7508    0.0000 C   0  0  0  0  0  0  0  0  0  0  0  0
   -1.3007    1.5021    0.0000 C   0  0  0  0  0  0  0  0  0  0  0  0
   -0.0014    0.7525    0.0000 C   0  0  0  0  0  0  0  0  0  0  0  0
   -0.0014   -0.7483    0.0000 C   0  0  0  0  0  0  0  0  0  0  0  0
    1.2978    1.5037    0.0000 C   0  0  0  0  0  0  0  0  0  0  0  0
    2.7750    1.7645    0.0000 C   0  0  0  0  0  0  0  0  0  0  0  0
    1.8115    0.0944    0.0000 C   0  0  0  0  0  0  0  0  0  0  0  0
    1.2978    3.0046    0.0000 C   0  0  0  0  0  0  0  0  0  0  0  0
   -0.0014    3.7542    0.0000 C   0  0  0  0  0  0  0  0  0  0  0  0
   -1.3007    3.0029    0.0000 C   0  0  0  0  0  0  0  0  0  0  0  0
   -2.7779    2.7421    0.0000 C   0  0  0  0  0  0  0  0  0  0  0  0
   -1.8144    4.4122    0.0000 C   0  0  0  0  0  0  0  0  0  0  0  0
   -3.8989   -1.5002    0.0000 C   0  0  0  0  0  0  0  0  0  0  0  0
   -3.3855   -2.9096    0.0000 C   0  0  0  0  0  0  0  0  0  0  0  0
   -4.8637   -2.6499    0.0000 O   0  0  0  0  0  0  0  0  0  0  0  0
   -4.8632   -0.3512    0.0000 C   0  0  0  0  0  0  0  0  0  0  0  0
   -4.3508    1.0044    0.0000 C   0  0  0  0  0  0  0  0  0  0  0  0
   -5.2568    2.1748    0.0000 C   0  0  0  0  0  0  0  0  0  0  0  0
   -6.7290    1.8963    0.0000 C   0  0  0  0  0  0  0  0  0  0  0  0
   -7.2413    0.5407    0.0000 C   0  0  0  0  0  0  0  0  0  0  0  0
   -6.3354   -0.6296    0.0000 C   0  0  0  0  0  0  0  0  0  0  0  0
   -7.6933    3.0453    0.0000 C   0  0  0  0  0  0  0  0  0  0  0  0
   -7.1803    4.4549    0.0000 O   0  0  0  0  0  0  0  0  0  0  0  0
   -9.1705    2.7848    0.0000 O   0  0  0  0  0  0  0  0  0  0  0  0
  1  2  1  0  0  0  0 
  2  3  2  0  0  0  0 
  3  4  1  0  0  0  0 
  4  5  2  0  0  0  0 
  5  6  1  0  0  0  0 
  6  7  2  0  0  0  0 
  2  7  1  0  0  0  0 
  6  8  1  0  0  0  0 
  8  9  1  0  0  0  0 
  8 10  1  0  0  0  0 
  8 11  1  0  0  0  0 
 11 12  1  0  0  0  0 
 12 13  1  0  0  0  0 
  5 13  1  0  0  0  0 
 13 14  1  0  0  0  0 
 13 15  1  0  0  0  0 
  3 16  1  0  0  0  0 
 16 17  1  0  0  0  0 
 17 18  1  0  0  0  0 
 16 18  1  0  0  0  0 
 16 19  1  0  0  0  0 
 19 20  2  0  0  0  0 
 20 21  1  0  0  0  0 
 21 22  2  0  0  0  0 
 22 23  1  0  0  0  0 
 23 24  2  0  0  0  0 
 19 24  1  0  0  0  0 
 22 25  1  0  0  0  0 
 25 26  2  0  0  0  0 
 25 27  1  0  0  0  0 
M  END
> <Rank>
6

> <Priority_score>
0.5650000000000001

> <Reaction_type>
epoxidation

> <Parent_ID>
1

> <Parent_InChI>
InChI=1S/C24H28O2/c1-15-13-20-21(24(5,6)12-11-23(20,3)4)14-19(15)16(2)17-7-9-18(10-8-17)22(25)26/h7-10,13-14H,2,11-12H2,1,3-6H3,(H,25,26)

> <Parent_SMILES>
C([H])([H])([H])C1=C(C([H])=C2C(=C1[H])C(C([H])([H])[H])(C([H])([H])[H])C([H])([H])C([H])([H])C2(C([H])([H])[H])C([H])([H])[H])C(=C([H])[H])C3=C([H])C([H])=C(C([H])=C3[H])C(=O)O[H]

$$$$

  CDK     1017240224

 27 29  0  0  0  0  0  0  0  0999 V2000
   -3.8989    1.5002    0.0000 C   0  0  0  0  0  0  0  0  0  0  0  0
   -2.6000    0.7500    0.0000 C   0  0  0  0  0  0  0  0  0  0  0  0
   -2.6000   -0.7500    0.0000 C   0  0  0  0  0  0  0  0  0  0  0  0
   -1.3000   -1.5000    0.0000 C   0  0  0  0  0  0  0  0  0  0  0  0
    0.0000   -0.7500    0.0000 C   0  0  0  0  0  0  0  0  0  0  0  0
    0.0000    0.7500    0.0000 C   0  0  0  0  0  0  0  0  0  0  0  0
   -1.3000    1.5000    0.0000 C   0  0  0  0  0  0  0  0  0  0  0  0
    1.3000    1.5000    0.0000 C   0  0  0  0  0  0  0  0  0  0  0  0
    2.2641    2.6492    0.0000 C   0  0  0  0  0  0  0  0  0  0  0  0
    0.3359    2.6492    0.0000 C   0  0  0  0  0  0  0  0  0  0  0  0
    2.6000    0.7500    0.0000 C   0  0  0  0  0  0  0  0  0  0  0  0
    2.6000   -0.7500    0.0000 C   0  0  0  0  0  0  0  0  0  0  0  0
    1.3000   -1.5000    0.0000 C   0  0  0  0  0  0  0  0  0  0  0  0
    0.3359   -2.6492    0.0000 C   0  0  0  0  0  0  0  0  0  0  0  0
    2.2641   -2.6492    0.0000 C   0  0  0  0  0  0  0  0  0  0  0  0
   -3.8989   -1.5002    0.0000 C   0  0  0  0  0  0  0  0  0  0  0  0
   -5.1981   -0.7504    0.0000 C   0  0  0  0  0  0  0  0  0  0  0  0
   -3.8987   -3.0002    0.0000 C   0  0  0  0  0  0  0  0  0  0  0  0
   -5.1986   -3.7504    0.0000 C   0  0  0  0  0  0  0  0  0  0  0  0
   -5.1983   -5.2504    0.0000 C   0  0  0  0  0  0  0  0  0  0  0  0
   -3.8982   -6.0002    0.0000 C   0  0  0  0  0  0  0  0  0  0  0  0
   -2.5983   -5.2500    0.0000 C   0  0  0  0  0  0  0  0  0  0  0  0
   -2.5986   -3.7500    0.0000 C   0  0  0  0  0  0  0  0  0  0  0  0
   -1.2993   -6.0000    0.0000 O   0  0  0  0  0  0  0  0  0  0  0  0
   -3.8980   -7.5002    0.0000 C   0  0  0  0  0  0  0  0  0  0  0  0
   -2.5988   -8.2500    0.0000 O   0  0  0  0  0  0  0  0  0  0  0  0
   -5.1969   -8.2504    0.0000 O   0  0  0  0  0  0  0  0  0  0  0  0
  1  2  1  0  0  0  0 
  2  3  2  0  0  0  0 
  3  4  1  0  0  0  0 
  4  5  2  0  0  0  0 
  5  6  1  0  0  0  0 
  6  7  2  0  0  0  0 
  2  7  1  0  0  0  0 
  6  8  1  0  0  0  0 
  8  9  1  0  0  0  0 
  8 10  1  0  0  0  0 
  8 11  1  0  0  0  0 
 11 12  1  0  0  0  0 
 12 13  1  0  0  0  0 
  5 13  1  0  0  0  0 
 13 14  1  0  0  0  0 
 13 15  1  0  0  0  0 
  3 16  1  0  0  0  0 
 16 17  2  0  0  0  0 
 16 18  1  0  0  0  0 
 18 19  2  0  0  0  0 
 19 20  1  0  0  0  0 
 20 21  2  0  0  0  0 
 21 22  1  0  0  0  0 
 22 23  2  0  0  0  0 
 18 23  1  0  0  0  0 
 22 24  1  0  0  0  0 
 21 25  1  0  0  0  0 
 25 26  2  0  0  0  0 
 25 27  1  0  0  0  0 
M  END
> <Rank>
7

> <Priority_score>
0.35000000000000003

> <Reaction_type>
aromatic hydroxylation

> <Parent_ID>
1

> <Parent_InChI>
InChI=1S/C24H28O2/c1-15-13-20-21(24(5,6)12-11-23(20,3)4)14-19(15)16(2)17-7-9-18(10-8-17)22(25)26/h7-10,13-14H,2,11-12H2,1,3-6H3,(H,25,26)

> <Parent_SMILES>
C([H])([H])([H])C1=C(C([H])=C2C(=C1[H])C(C([H])([H])[H])(C([H])([H])[H])C([H])([H])C([H])([H])C2(C([H])([H])[H])C([H])([H])[H])C(=C([H])[H])C3=C([H])C([H])=C(C([H])=C3[H])C(=O)O[H]

$$$$

  CDK     1017240224

 26 28  0  0  0  0  0  0  0  0999 V2000
   -3.8989    1.5002    0.0000 C   0  0  0  0  0  0  0  0  0  0  0  0
   -2.6000    0.7500    0.0000 C   0  0  0  0  0  0  0  0  0  0  0  0
   -2.6000   -0.7500    0.0000 C   0  0  0  0  0  0  0  0  0  0  0  0
   -1.3000   -1.5000    0.0000 C   0  0  0  0  0  0  0  0  0  0  0  0
    0.0000   -0.7500    0.0000 C   0  0  0  0  0  0  0  0  0  0  0  0
    0.0000    0.7500    0.0000 C   0  0  0  0  0  0  0  0  0  0  0  0
   -1.3000    1.5000    0.0000 C   0  0  0  0  0  0  0  0  0  0  0  0
    1.3000    1.5000    0.0000 C   0  0  0  0  0  0  0  0  0  0  0  0
    2.2641    2.6492    0.0000 C   0  0  0  0  0  0  0  0  0  0  0  0
    0.3359    2.6492    0.0000 C   0  0  0  0  0  0  0  0  0  0  0  0
    2.6000    0.7500    0.0000 C   0  0  0  0  0  0  0  0  0  0  0  0
    2.6000   -0.7500    0.0000 C   0  0  0  0  0  0  0  0  0  0  0  0
    1.3000   -1.5000    0.0000 C   0  0  0  0  0  0  0  0  0  0  0  0
    0.3359   -2.6492    0.0000 C   0  0  0  0  0  0  0  0  0  0  0  0
    2.2641   -2.6492    0.0000 C   0  0  0  0  0  0  0  0  0  0  0  0
   -3.8989   -1.5002    0.0000 C   0  0  0  0  0  0  0  0  0  0  0  0
   -5.1981   -0.7504    0.0000 C   0  0  0  0  0  0  0  0  0  0  0  0
   -3.8987   -3.0002    0.0000 C   0  0  0  0  0  0  0  0  0  0  0  0
   -5.1624   -3.7095    0.0000 C   0  0  0  0  0  0  0  0  0  0  0  0
   -5.2206   -5.1884    0.0000 C   0  0  0  0  0  0  0  0  0  0  0  0
   -3.9137   -5.9213    0.0000 C   0  0  0  0  0  0  0  0  0  0  0  0
   -2.6500   -5.2120    0.0000 C   0  0  0  0  0  0  0  0  0  0  0  0
   -2.5918   -3.7331    0.0000 C   0  0  0  0  0  0  0  0  0  0  0  0
   -3.9135   -7.4213    0.0000 C   0  0  0  0  0  0  0  0  0  0  0  0
   -2.6143   -8.1711    0.0000 O   0  0  0  0  0  0  0  0  0  0  0  0
   -5.2124   -8.1715    0.0000 O   0  0  0  0  0  0  0  0  0  0  0  0
  1  2  1  0  0  0  0 
  2  3  2  0  0  0  0 
  3  4  1  0  0  0  0 
  4  5  2  0  0  0  0 
  5  6  1  0  0  0  0 
  6  7  2  0  0  0  0 
  2  7  1  0  0  0  0 
  6  8  1  0  0  0  0 
  8  9  1  0  0  0  0 
  8 10  1  0  0  0  0 
  8 11  1  0  0  0  0 
 11 12  2  0  0  0  0 
 12 13  1  0  0  0  0 
  5 13  1  0  0  0  0 
 13 14  1  0  0  0  0 
 13 15  1  0  0  0  0 
  3 16  1  0  0  0  0 
 16 17  2  0  0  0  0 
 16 18  1  0  0  0  0 
 18 19  2  0  0  0  0 
 19 20  1  0  0  0  0 
 20 21  2  0  0  0  0 
 21 22  1  0  0  0  0 
 22 23  2  0  0  0  0 
 18 23  1  0  0  0  0 
 21 24  1  0  0  0  0 
 24 25  2  0  0  0  0 
 24 26  1  0  0  0  0 
M  END
> <Rank>
8

> <Priority_score>
0.316

> <Reaction_type>
alkyl dehydrogenation

> <Parent_ID>
1

> <Parent_InChI>
InChI=1S/C24H28O2/c1-15-13-20-21(24(5,6)12-11-23(20,3)4)14-19(15)16(2)17-7-9-18(10-8-17)22(25)26/h7-10,13-14H,2,11-12H2,1,3-6H3,(H,25,26)

> <Parent_SMILES>
C([H])([H])([H])C1=C(C([H])=C2C(=C1[H])C(C([H])([H])[H])(C([H])([H])[H])C([H])([H])C([H])([H])C2(C([H])([H])[H])C([H])([H])[H])C(=C([H])[H])C3=C([H])C([H])=C(C([H])=C3[H])C(=O)O[H]

$$$$

  CDK     1017240224

 27 29  0  0  0  0  0  0  0  0999 V2000
   -3.8989    1.5002    0.0000 C   0  0  0  0  0  0  0  0  0  0  0  0
   -2.6000    0.7500    0.0000 C   0  0  0  0  0  0  0  0  0  0  0  0
   -2.6000   -0.7500    0.0000 C   0  0  0  0  0  0  0  0  0  0  0  0
   -1.3000   -1.5000    0.0000 C   0  0  0  0  0  0  0  0  0  0  0  0
    0.0000   -0.7500    0.0000 C   0  0  0  0  0  0  0  0  0  0  0  0
    0.0000    0.7500    0.0000 C   0  0  0  0  0  0  0  0  0  0  0  0
   -1.3000    1.5000    0.0000 C   0  0  0  0  0  0  0  0  0  0  0  0
    1.3000    1.5000    0.0000 C   0  0  0  0  0  0  0  0  0  0  0  0
    2.2641    2.6492    0.0000 C   0  0  0  0  0  0  0  0  0  0  0  0
    0.3359    2.6492    0.0000 C   0  0  0  0  0  0  0  0  0  0  0  0
    2.6000    0.7500    0.0000 C   0  0  0  0  0  0  0  0  0  0  0  0
    2.6000   -0.7500    0.0000 C   0  0  0  0  0  0  0  0  0  0  0  0
    1.3000   -1.5000    0.0000 C   0  0  0  0  0  0  0  0  0  0  0  0
    0.3359   -2.6492    0.0000 C   0  0  0  0  0  0  0  0  0  0  0  0
    2.2641   -2.6492    0.0000 C   0  0  0  0  0  0  0  0  0  0  0  0
   -3.8989   -1.5002    0.0000 C   0  0  0  0  0  0  0  0  0  0  0  0
   -5.1981   -0.7504    0.0000 C   0  0  0  0  0  0  0  0  0  0  0  0
   -3.8987   -3.0002    0.0000 C   0  0  0  0  0  0  0  0  0  0  0  0
   -2.5986   -3.7500    0.0000 C   0  0  0  0  0  0  0  0  0  0  0  0
   -2.5983   -5.2500    0.0000 C   0  0  0  0  0  0  0  0  0  0  0  0
   -3.8982   -6.0002    0.0000 C   0  0  0  0  0  0  0  0  0  0  0  0
   -5.1983   -5.2504    0.0000 C   0  0  0  0  0  0  0  0  0  0  0  0
   -5.1986   -3.7504    0.0000 C   0  0  0  0  0  0  0  0  0  0  0  0
   -6.4976   -3.0004    0.0000 O   0  0  0  0  0  0  0  0  0  0  0  0
   -3.8980   -7.5002    0.0000 C   0  0  0  0  0  0  0  0  0  0  0  0
   -2.5988   -8.2500    0.0000 O   0  0  0  0  0  0  0  0  0  0  0  0
   -5.1969   -8.2504    0.0000 O   0  0  0  0  0  0  0  0  0  0  0  0
  1  2  1  0  0  0  0 
  2  3  2  0  0  0  0 
  3  4  1  0  0  0  0 
  4  5  2  0  0  0  0 
  5  6  1  0  0  0  0 
  6  7  2  0  0  0  0 
  2  7  1  0  0  0  0 
  6  8  1  0  0  0  0 
  8  9  1  0  0  0  0 
  8 10  1  0  0  0  0 
  8 11  1  0  0  0  0 
 11 12  1  0  0  0  0 
 12 13  1  0  0  0  0 
  5 13  1  0  0  0  0 
 13 14  1  0  0  0  0 
 13 15  1  0  0  0  0 
  3 16  1  0  0  0  0 
 16 17  2  0  0  0  0 
 16 18  1  0  0  0  0 
 18 19  2  0  0  0  0 
 19 20  1  0  0  0  0 
 20 21  2  0  0  0  0 
 21 22  1  0  0  0  0 
 22 23  2  0  0  0  0 
 18 23  1  0  0  0  0 
 23 24  1  0  0  0  0 
 21 25  1  0  0  0  0 
 25 26  2  0  0  0  0 
 25 27  1  0  0  0  0 
M  END
> <Rank>
9

> <Priority_score>
0.25

> <Reaction_type>
aromatic hydroxylation

> <Parent_ID>
1

> <Parent_InChI>
InChI=1S/C24H28O2/c1-15-13-20-21(24(5,6)12-11-23(20,3)4)14-19(15)16(2)17-7-9-18(10-8-17)22(25)26/h7-10,13-14H,2,11-12H2,1,3-6H3,(H,25,26)

> <Parent_SMILES>
C([H])([H])([H])C1=C(C([H])=C2C(=C1[H])C(C([H])([H])[H])(C([H])([H])[H])C([H])([H])C([H])([H])C2(C([H])([H])[H])C([H])([H])[H])C(=C([H])[H])C3=C([H])C([H])=C(C([H])=C3[H])C(=O)O[H]

$$$$

  CDK     1017240224

 27 29  0  0  0  0  0  0  0  0999 V2000
   -5.1981    0.7504    0.0000 C   0  0  0  0  0  0  0  0  0  0  0  0
   -3.8989    1.5002    0.0000 C   0  0  0  0  0  0  0  0  0  0  0  0
   -3.8987    3.0002    0.0000 C   0  0  0  0  0  0  0  0  0  0  0  0
   -2.6347    3.7091    0.0000 C   0  0  0  0  0  0  0  0  0  0  0  0
   -2.5761    5.1879    0.0000 C   0  0  0  0  0  0  0  0  0  0  0  0
   -3.8827    5.9213    0.0000 C   0  0  0  0  0  0  0  0  0  0  0  0
   -5.1467    5.2124    0.0000 C   0  0  0  0  0  0  0  0  0  0  0  0
   -5.2053    3.7335    0.0000 C   0  0  0  0  0  0  0  0  0  0  0  0
   -3.8825    7.4213    0.0000 C   0  0  0  0  0  0  0  0  0  0  0  0
   -2.5833    8.1711    0.0000 O   0  0  0  0  0  0  0  0  0  0  0  0
   -5.1814    8.1715    0.0000 O   0  0  0  0  0  0  0  0  0  0  0  0
   -2.6000    0.7500    0.0000 C   0  0  0  0  0  0  0  0  0  0  0  0
   -2.6000   -0.7500    0.0000 C   0  0  0  0  0  0  0  0  0  0  0  0
   -3.8989   -1.5002    0.0000 C   0  0  0  0  0  0  0  0  0  0  0  0
   -1.3000   -1.5000    0.0000 C   0  0  0  0  0  0  0  0  0  0  0  0
    0.0000   -0.7500    0.0000 C   0  0  0  0  0  0  0  0  0  0  0  0
    0.0000    0.7500    0.0000 C   0  0  0  0  0  0  0  0  0  0  0  0
   -1.3000    1.5000    0.0000 C   0  0  0  0  0  0  0  0  0  0  0  0
    1.3000    1.5000    0.0000 C   0  0  0  0  0  0  0  0  0  0  0  0
    2.2641    2.6492    0.0000 C   0  0  0  0  0  0  0  0  0  0  0  0
    0.3359    2.6492    0.0000 C   0  0  0  0  0  0  0  0  0  0  0  0
    2.6000    0.7500    0.0000 C   0  0  0  0  0  0  0  0  0  0  0  0
    2.6000   -0.7500    0.0000 C   0  0  0  0  0  0  0  0  0  0  0  0
    1.3000   -1.5000    0.0000 C   0  0  0  0  0  0  0  0  0  0  0  0
    0.3359   -2.6492    0.0000 C   0  0  0  0  0  0  0  0  0  0  0  0
    2.2641   -2.6492    0.0000 C   0  0  0  0  0  0  0  0  0  0  0  0
   -1.3000   -3.0000    0.0000 O   0  0  0  0  0  0  0  0  0  0  0  0
  1  2  2  0  0  0  0 
  2  3  1  0  0  0  0 
  3  4  2  0  0  0  0 
  4  5  1  0  0  0  0 
  5  6  2  0  0  0  0 
  6  7  1  0  0  0  0 
  7  8  2  0  0  0  0 
  3  8  1  0  0  0  0 
  6  9  1  0  0  0  0 
  9 10  2  0  0  0  0 
  9 11  1  0  0  0  0 
  2 12  1  0  0  0  0 
 12 13  2  0  0  0  0 
 13 14  1  0  0  0  0 
 13 15  1  0  0  0  0 
 15 16  2  0  0  0  0 
 16 17  1  0  0  0  0 
 17 18  2  0  0  0  0 
 12 18  1  0  0  0  0 
 17 19  1  0  0  0  0 
 19 20  1  0  0  0  0 
 19 21  1  0  0  0  0 
 19 22  1  0  0  0  0 
 22 23  1  0  0  0  0 
 23 24  1  0  0  0  0 
 16 24  1  0  0  0  0 
 24 25  1  0  0  0  0 
 24 26  1  0  0  0  0 
 15 27  1  0  0  0  0 
M  END
> <Rank>
10

> <Priority_score>
0.11380952380952382

> <Reaction_type>
aromatic hydroxylation

> <Parent_ID>
1

> <Parent_InChI>
InChI=1S/C24H28O2/c1-15-13-20-21(24(5,6)12-11-23(20,3)4)14-19(15)16(2)17-7-9-18(10-8-17)22(25)26/h7-10,13-14H,2,11-12H2,1,3-6H3,(H,25,26)

> <Parent_SMILES>
C([H])([H])([H])C1=C(C([H])=C2C(=C1[H])C(C([H])([H])[H])(C([H])([H])[H])C([H])([H])C([H])([H])C2(C([H])([H])[H])C([H])([H])[H])C(=C([H])[H])C3=C([H])C([H])=C(C([H])=C3[H])C(=O)O[H]

$$$$

  CDK     1017240224

 27 29  0  0  0  0  0  0  0  0999 V2000
   -3.8989    1.5002    0.0000 C   0  0  0  0  0  0  0  0  0  0  0  0
   -2.6000    0.7500    0.0000 C   0  0  0  0  0  0  0  0  0  0  0  0
   -2.6000   -0.7500    0.0000 C   0  0  0  0  0  0  0  0  0  0  0  0
   -3.8989   -1.5002    0.0000 C   0  0  0  0  0  0  0  0  0  0  0  0
   -5.1981   -0.7504    0.0000 C   0  0  0  0  0  0  0  0  0  0  0  0
   -3.8987   -3.0002    0.0000 C   0  0  0  0  0  0  0  0  0  0  0  0
   -5.1624   -3.7095    0.0000 C   0  0  0  0  0  0  0  0  0  0  0  0
   -5.2206   -5.1884    0.0000 C   0  0  0  0  0  0  0  0  0  0  0  0
   -3.9137   -5.9213    0.0000 C   0  0  0  0  0  0  0  0  0  0  0  0
   -2.6500   -5.2120    0.0000 C   0  0  0  0  0  0  0  0  0  0  0  0
   -2.5918   -3.7331    0.0000 C   0  0  0  0  0  0  0  0  0  0  0  0
   -3.9135   -7.4213    0.0000 C   0  0  0  0  0  0  0  0  0  0  0  0
   -2.6143   -8.1711    0.0000 O   0  0  0  0  0  0  0  0  0  0  0  0
   -5.2124   -8.1715    0.0000 O   0  0  0  0  0  0  0  0  0  0  0  0
   -1.3000   -1.5000    0.0000 C   0  0  0  0  0  0  0  0  0  0  0  0
    0.0000   -0.7500    0.0000 C   0  0  0  0  0  0  0  0  0  0  0  0
    0.0000    0.7500    0.0000 C   0  0  0  0  0  0  0  0  0  0  0  0
   -1.3000    1.5000    0.0000 C   0  0  0  0  0  0  0  0  0  0  0  0
    1.3000    1.5000    0.0000 C   0  0  0  0  0  0  0  0  0  0  0  0
    2.2641    2.6492    0.0000 C   0  0  0  0  0  0  0  0  0  0  0  0
    0.3359    2.6492    0.0000 C   0  0  0  0  0  0  0  0  0  0  0  0
    2.6000    0.7500    0.0000 C   0  0  0  0  0  0  0  0  0  0  0  0
    2.6000   -0.7500    0.0000 C   0  0  0  0  0  0  0  0  0  0  0  0
    1.3000   -1.5000    0.0000 C   0  0  0  0  0  0  0  0  0  0  0  0
    0.3359   -2.6492    0.0000 C   0  0  0  0  0  0  0  0  0  0  0  0
    2.2641   -2.6492    0.0000 C   0  0  0  0  0  0  0  0  0  0  0  0
   -1.3000   -3.0000    0.0000 O   0  0  0  0  0  0  0  0  0  0  0  0
  1  2  1  0  0  0  0 
  2  3  2  0  0  0  0 
  3  4  1  0  0  0  0 
  4  5  2  0  0  0  0 
  4  6  1  0  0  0  0 
  6  7  2  0  0  0  0 
  7  8  1  0  0  0  0 
  8  9  2  0  0  0  0 
  9 10  1  0  0  0  0 
 10 11  2  0  0  0  0 
  6 11  1  0  0  0  0 
  9 12  1  0  0  0  0 
 12 13  2  0  0  0  0 
 12 14  1  0  0  0  0 
  3 15  1  0  0  0  0 
 15 16  2  0  0  0  0 
 16 17  1  0  0  0  0 
 17 18  2  0  0  0  0 
  2 18  1  0  0  0  0 
 17 19  1  0  0  0  0 
 19 20  1  0  0  0  0 
 19 21  1  0  0  0  0 
 19 22  1  0  0  0  0 
 22 23  1  0  0  0  0 
 23 24  1  0  0  0  0 
 16 24  1  0  0  0  0 
 24 25  1  0  0  0  0 
 24 26  1  0  0  0  0 
 15 27  1  0  0  0  0 
M  END
> <Rank>
11

> <Priority_score>
0.095

> <Reaction_type>
aromatic hydroxylation

> <Parent_ID>
1

> <Parent_InChI>
InChI=1S/C24H28O2/c1-15-13-20-21(24(5,6)12-11-23(20,3)4)14-19(15)16(2)17-7-9-18(10-8-17)22(25)26/h7-10,13-14H,2,11-12H2,1,3-6H3,(H,25,26)

> <Parent_SMILES>
C([H])([H])([H])C1=C(C([H])=C2C(=C1[H])C(C([H])([H])[H])(C([H])([H])[H])C([H])([H])C([H])([H])C2(C([H])([H])[H])C([H])([H])[H])C(=C([H])[H])C3=C([H])C([H])=C(C([H])=C3[H])C(=O)O[H]

$$$$
