
  CDK     1017240638

 23 24  0  0  0  0  0  0  0  0999 V2000
    1.9484    3.3770    0.0000 C   0  0  0  0  0  0  0  0  0  0  0  0
    3.2479    2.6261    0.0000 C   0  0  0  0  0  0  0  0  0  0  0  0
    3.2484    1.1253    0.0000 C   0  0  0  0  0  0  0  0  0  0  0  0
    1.9493    0.3753    0.0000 C   0  0  0  0  0  0  0  0  0  0  0  0
    0.6498    1.1261    0.0000 C   0  0  0  0  0  0  0  0  0  0  0  0
    0.6493    2.6270    0.0000 C   0  0  0  0  0  0  0  0  0  0  0  0
   -0.6492    0.3761    0.0000 C   0  0  0  0  0  0  0  0  0  0  0  0
   -1.9483    1.1261    0.0000 C   0  0  0  0  0  0  0  0  0  0  0  0
   -3.2473    0.3761    0.0000 C   0  0  0  0  0  0  0  0  0  0  0  0
   -3.2473   -1.1239    0.0000 O   0  0  0  0  0  0  0  0  0  0  0  0
   -4.5463    1.1261    0.0000 N   0  0  0  0  0  0  0  0  0  0  0  0
   -5.8454    0.3761    0.0000 O   0  0  0  0  0  0  0  0  0  0  0  0
    4.5475    0.3755    0.0000 S   0  0  0  0  0  0  0  0  0  0  0  0
    3.5835   -0.7737    0.0000 O   0  0  0  0  0  0  0  0  0  0  0  0
    5.5119   -0.7734    0.0000 O   0  0  0  0  0  0  0  0  0  0  0  0
    5.8465    1.1257    0.0000 N   0  0  0  0  0  0  0  0  0  0  0  0
    7.1456    0.3759    0.0000 C   0  0  0  0  0  0  0  0  0  0  0  0
    8.4446    1.1259    0.0000 C   0  0  0  0  0  0  0  0  0  0  0  0
    9.7442    0.3751    0.0000 C   0  0  0  0  0  0  0  0  0  0  0  0
    9.7446   -1.1257    0.0000 C   0  0  0  0  0  0  0  0  0  0  0  0
    8.4456   -1.8757    0.0000 C   0  0  0  0  0  0  0  0  0  0  0  0
    7.1461   -1.1249    0.0000 C   0  0  0  0  0  0  0  0  0  0  0  0
   11.0438   -1.8755    0.0000 O   0  0  0  0  0  0  0  0  0  0  0  0
  1  2  2  0  0  0  0 
  2  3  1  0  0  0  0 
  3  4  2  0  0  0  0 
  4  5  1  0  0  0  0 
  5  6  2  0  0  0  0 
  1  6  1  0  0  0  0 
  5  7  1  0  0  0  0 
  7  8  2  0  0  0  0 
  8  9  1  4  0  0  0 
  9 10  2  0  0  0  0 
  9 11  1  0  0  0  0 
 11 12  1  0  0  0  0 
  3 13  1  0  0  0  0 
 13 14  2  0  0  0  0 
 13 15  2  0  0  0  0 
 13 16  1  0  0  0  0 
 16 17  1  0  0  0  0 
 17 18  2  0  0  0  0 
 18 19  1  0  0  0  0 
 19 20  2  0  0  0  0 
 20 21  1  0  0  0  0 
 21 22  2  0  0  0  0 
 17 22  1  0  0  0  0 
 20 23  1  0  0  0  0 
M  END
> <Rank>
1

> <Priority_score>
3.97

> <Reaction_type>
aromatic hydroxylation

> <Parent_ID>
1

> <Parent_InChI>
InChI=1S/C15H14N2O4S/c18-15(16-19)10-9-12-5-4-8-14(11-12)22(20,21)17-13-6-2-1-3-7-13/h1-11,17,19H,(H,16,18)/b10-9+

> <Parent_SMILES>
C1([H])=C([H])C([H])=C(C([H])=C1[H])N([H])S(=O)(=O)C2=C([H])C(=C([H])C([H])=C2[H])/C(/[H])=C(\[H])/C(=O)N([H])O[H]

$$$$

  CDK     1017240638

 23 24  0  0  0  0  0  0  0  0999 V2000
    3.2145    0.3242    0.0000 C   0  0  0  0  0  0  0  0  0  0  0  0
    1.7137    0.3237    0.0000 C   0  0  0  0  0  0  0  0  0  0  0  0
    0.9637    1.6227    0.0000 C   0  0  0  0  0  0  0  0  0  0  0  0
    1.7145    2.9223    0.0000 C   0  0  0  0  0  0  0  0  0  0  0  0
    3.2154    2.9227    0.0000 C   0  0  0  0  0  0  0  0  0  0  0  0
    3.9654    1.6237    0.0000 C   0  0  0  0  0  0  0  0  0  0  0  0
    0.9645    4.2213    0.0000 N   0  0  0  0  0  0  0  0  0  0  0  0
   -0.5355    4.2213    0.0000 S   0  0  0  0  0  0  0  0  0  0  0  0
   -1.9450    3.7083    0.0000 O   0  0  0  0  0  0  0  0  0  0  0  0
   -0.2750    2.7441    0.0000 O   0  0  0  0  0  0  0  0  0  0  0  0
   -1.2855    5.5203    0.0000 C   0  0  0  0  0  0  0  0  0  0  0  0
   -2.7863    5.5206    0.0000 C   0  0  0  0  0  0  0  0  0  0  0  0
   -3.5373    6.8200    0.0000 C   0  0  0  0  0  0  0  0  0  0  0  0
   -2.7875    8.1191    0.0000 C   0  0  0  0  0  0  0  0  0  0  0  0
   -1.2867    8.1189    0.0000 C   0  0  0  0  0  0  0  0  0  0  0  0
   -0.5357    6.8195    0.0000 C   0  0  0  0  0  0  0  0  0  0  0  0
   -5.0373    6.8195    0.0000 C   0  0  0  0  0  0  0  0  0  0  0  0
   -5.7877    8.1183    0.0000 C   0  0  0  0  0  0  0  0  0  0  0  0
   -7.2877    8.1178    0.0000 C   0  0  0  0  0  0  0  0  0  0  0  0
   -8.0373    6.8185    0.0000 O   0  0  0  0  0  0  0  0  0  0  0  0
   -8.0382    9.4166    0.0000 N   0  0  0  0  0  0  0  0  0  0  0  0
   -9.5382    9.4161    0.0000 O   0  0  0  0  0  0  0  0  0  0  0  0
   -7.2886   10.7159    0.0000 O   0  0  0  0  0  0  0  0  0  0  0  0
  1  2  2  0  0  0  0 
  2  3  1  0  0  0  0 
  3  4  2  0  0  0  0 
  4  5  1  0  0  0  0 
  5  6  2  0  0  0  0 
  1  6  1  0  0  0  0 
  4  7  1  0  0  0  0 
  7  8  1  0  0  0  0 
  8  9  2  0  0  0  0 
  8 10  2  0  0  0  0 
  8 11  1  0  0  0  0 
 11 12  2  0  0  0  0 
 12 13  1  0  0  0  0 
 13 14  2  0  0  0  0 
 14 15  1  0  0  0  0 
 15 16  2  0  0  0  0 
 11 16  1  0  0  0  0 
 13 17  1  0  0  0  0 
 17 18  2  0  0  0  0 
 18 19  1  4  0  0  0 
 19 20  2  0  0  0  0 
 19 21  1  0  0  0  0 
 21 22  1  0  0  0  0 
 21 23  1  0  0  0  0 
M  END
> <Rank>
2

> <Priority_score>
0.99

> <Reaction_type>
amine hydroxylation

> <Parent_ID>
1

> <Parent_InChI>
InChI=1S/C15H14N2O4S/c18-15(16-19)10-9-12-5-4-8-14(11-12)22(20,21)17-13-6-2-1-3-7-13/h1-11,17,19H,(H,16,18)/b10-9+

> <Parent_SMILES>
C1([H])=C([H])C([H])=C(C([H])=C1[H])N([H])S(=O)(=O)C2=C([H])C(=C([H])C([H])=C2[H])/C(/[H])=C(\[H])/C(=O)N([H])O[H]

$$$$

  CDK     1017240638

 23 25  0  0  0  0  0  0  0  0999 V2000
    5.1369    4.0609    0.0000 C   0  0  0  0  0  0  0  0  0  0  0  0
    3.8370    3.3107    0.0000 C   0  0  0  0  0  0  0  0  0  0  0  0
    2.5383    4.0613    0.0000 C   0  0  0  0  0  0  0  0  0  0  0  0
    2.5395    5.5622    0.0000 C   0  0  0  0  0  0  0  0  0  0  0  0
    3.8394    6.3124    0.0000 C   0  0  0  0  0  0  0  0  0  0  0  0
    5.1381    5.5618    0.0000 C   0  0  0  0  0  0  0  0  0  0  0  0
    1.2409    6.3128    0.0000 N   0  0  0  0  0  0  0  0  0  0  0  0
   -0.0585    5.5634    0.0000 S   0  0  0  0  0  0  0  0  0  0  0  0
   -1.0233    4.4148    0.0000 O   0  0  0  0  0  0  0  0  0  0  0  0
    0.9051    4.4139    0.0000 O   0  0  0  0  0  0  0  0  0  0  0  0
   -1.3572    6.3140    0.0000 C   0  0  0  0  0  0  0  0  0  0  0  0
   -2.6574    5.5645    0.0000 C   0  0  0  0  0  0  0  0  0  0  0  0
   -3.9572    6.3149    0.0000 C   0  0  0  0  0  0  0  0  0  0  0  0
   -3.9567    7.8149    0.0000 C   0  0  0  0  0  0  0  0  0  0  0  0
   -2.6565    8.5645    0.0000 C   0  0  0  0  0  0  0  0  0  0  0  0
   -1.3567    7.8140    0.0000 C   0  0  0  0  0  0  0  0  0  0  0  0
   -5.2564    5.5651    0.0000 C   0  0  0  0  0  0  0  0  0  0  0  0
   -6.0064    4.2661    0.0000 C   0  0  0  0  0  0  0  0  0  0  0  0
   -6.0061    2.7661    0.0000 C   0  0  0  0  0  0  0  0  0  0  0  0
   -4.7070    2.0163    0.0000 O   0  0  0  0  0  0  0  0  0  0  0  0
   -7.3050    2.0158    0.0000 N   0  0  0  0  0  0  0  0  0  0  0  0
   -8.6042    2.7656    0.0000 O   0  0  0  0  0  0  0  0  0  0  0  0
   -6.7572    5.5656    0.0000 O   0  0  0  0  0  0  0  0  0  0  0  0
  1  2  2  0  0  0  0 
  2  3  1  0  0  0  0 
  3  4  2  0  0  0  0 
  4  5  1  0  0  0  0 
  5  6  2  0  0  0  0 
  1  6  1  0  0  0  0 
  4  7  1  0  0  0  0 
  7  8  1  0  0  0  0 
  8  9  2  0  0  0  0 
  8 10  2  0  0  0  0 
  8 11  1  0  0  0  0 
 11 12  2  0  0  0  0 
 12 13  1  0  0  0  0 
 13 14  2  0  0  0  0 
 14 15  1  0  0  0  0 
 15 16  2  0  0  0  0 
 11 16  1  0  0  0  0 
 13 17  1  0  0  0  0 
 17 18  1  0  0  0  0 
 18 19  1  0  0  0  0 
 19 20  2  0  0  0  0 
 19 21  1  0  0  0  0 
 21 22  1  0  0  0  0 
 18 23  1  0  0  0  0 
 17 23  1  0  0  0  0 
M  END
> <Rank>
3

> <Priority_score>
0.65

> <Reaction_type>
epoxidation

> <Parent_ID>
1

> <Parent_InChI>
InChI=1S/C15H14N2O4S/c18-15(16-19)10-9-12-5-4-8-14(11-12)22(20,21)17-13-6-2-1-3-7-13/h1-11,17,19H,(H,16,18)/b10-9+

> <Parent_SMILES>
C1([H])=C([H])C([H])=C(C([H])=C1[H])N([H])S(=O)(=O)C2=C([H])C(=C([H])C([H])=C2[H])/C(/[H])=C(\[H])/C(=O)N([H])O[H]

$$$$

  CDK     1017240638

 23 24  0  0  0  0  0  0  0  0999 V2000
    3.2143    0.3241    0.0000 C   0  0  0  0  0  0  0  0  0  0  0  0
    1.7135    0.3237    0.0000 C   0  0  0  0  0  0  0  0  0  0  0  0
    0.9635    1.6227    0.0000 C   0  0  0  0  0  0  0  0  0  0  0  0
    1.7143    2.9222    0.0000 C   0  0  0  0  0  0  0  0  0  0  0  0
    3.2152    2.9227    0.0000 C   0  0  0  0  0  0  0  0  0  0  0  0
    3.9652    1.6237    0.0000 C   0  0  0  0  0  0  0  0  0  0  0  0
    0.9643    4.2212    0.0000 N   0  0  0  0  0  0  0  0  0  0  0  0
    1.7143    5.5203    0.0000 O   0  0  0  0  0  0  0  0  0  0  0  0
   -0.5357    4.2212    0.0000 S   0  0  0  0  0  0  0  0  0  0  0  0
   -1.9452    3.7082    0.0000 O   0  0  0  0  0  0  0  0  0  0  0  0
   -0.2752    2.7440    0.0000 O   0  0  0  0  0  0  0  0  0  0  0  0
   -1.2857    5.5203    0.0000 C   0  0  0  0  0  0  0  0  0  0  0  0
   -2.7865    5.5205    0.0000 C   0  0  0  0  0  0  0  0  0  0  0  0
   -3.5375    6.8199    0.0000 C   0  0  0  0  0  0  0  0  0  0  0  0
   -2.7877    8.1191    0.0000 C   0  0  0  0  0  0  0  0  0  0  0  0
   -1.2869    8.1188    0.0000 C   0  0  0  0  0  0  0  0  0  0  0  0
   -0.5359    6.8194    0.0000 C   0  0  0  0  0  0  0  0  0  0  0  0
   -5.0375    6.8194    0.0000 C   0  0  0  0  0  0  0  0  0  0  0  0
   -5.7880    8.1182    0.0000 C   0  0  0  0  0  0  0  0  0  0  0  0
   -7.2880    8.1178    0.0000 C   0  0  0  0  0  0  0  0  0  0  0  0
   -8.0375    6.8185    0.0000 O   0  0  0  0  0  0  0  0  0  0  0  0
   -8.0384    9.4166    0.0000 N   0  0  0  0  0  0  0  0  0  0  0  0
   -9.5384    9.4161    0.0000 O   0  0  0  0  0  0  0  0  0  0  0  0
  1  2  2  0  0  0  0 
  2  3  1  0  0  0  0 
  3  4  2  0  0  0  0 
  4  5  1  0  0  0  0 
  5  6  2  0  0  0  0 
  1  6  1  0  0  0  0 
  4  7  1  0  0  0  0 
  7  8  1  0  0  0  0 
  7  9  1  0  0  0  0 
  9 10  2  0  0  0  0 
  9 11  2  0  0  0  0 
  9 12  1  0  0  0  0 
 12 13  2  0  0  0  0 
 13 14  1  0  0  0  0 
 14 15  2  0  0  0  0 
 15 16  1  0  0  0  0 
 16 17  2  0  0  0  0 
 12 17  1  0  0  0  0 
 14 18  1  0  0  0  0 
 18 19  2  0  0  0  0 
 19 20  1  4  0  0  0 
 20 21  2  0  0  0  0 
 20 22  1  0  0  0  0 
 22 23  1  0  0  0  0 
M  END
> <Rank>
4

> <Priority_score>
0.5

> <Reaction_type>
amine hydroxylation

> <Parent_ID>
1

> <Parent_InChI>
InChI=1S/C15H14N2O4S/c18-15(16-19)10-9-12-5-4-8-14(11-12)22(20,21)17-13-6-2-1-3-7-13/h1-11,17,19H,(H,16,18)/b10-9+

> <Parent_SMILES>
C1([H])=C([H])C([H])=C(C([H])=C1[H])N([H])S(=O)(=O)C2=C([H])C(=C([H])C([H])=C2[H])/C(/[H])=C(\[H])/C(=O)N([H])O[H]

$$$$

  CDK     1017240638

 23 24  0  0  0  0  0  0  0  0999 V2000
    3.2143    0.3241    0.0000 C   0  0  0  0  0  0  0  0  0  0  0  0
    1.7135    0.3237    0.0000 C   0  0  0  0  0  0  0  0  0  0  0  0
    0.9635    1.6227    0.0000 C   0  0  0  0  0  0  0  0  0  0  0  0
    1.7143    2.9222    0.0000 C   0  0  0  0  0  0  0  0  0  0  0  0
    3.2152    2.9227    0.0000 C   0  0  0  0  0  0  0  0  0  0  0  0
    3.9652    1.6237    0.0000 C   0  0  0  0  0  0  0  0  0  0  0  0
    0.9643    4.2212    0.0000 N   0  0  0  0  0  0  0  0  0  0  0  0
   -0.5357    4.2212    0.0000 S   0  0  0  0  0  0  0  0  0  0  0  0
   -1.9452    3.7082    0.0000 O   0  0  0  0  0  0  0  0  0  0  0  0
   -0.2752    2.7440    0.0000 O   0  0  0  0  0  0  0  0  0  0  0  0
   -1.2857    5.5203    0.0000 C   0  0  0  0  0  0  0  0  0  0  0  0
   -2.7865    5.5205    0.0000 C   0  0  0  0  0  0  0  0  0  0  0  0
   -3.5375    6.8199    0.0000 C   0  0  0  0  0  0  0  0  0  0  0  0
   -2.7877    8.1191    0.0000 C   0  0  0  0  0  0  0  0  0  0  0  0
   -1.2869    8.1188    0.0000 C   0  0  0  0  0  0  0  0  0  0  0  0
   -0.5359    6.8194    0.0000 C   0  0  0  0  0  0  0  0  0  0  0  0
   -5.0375    6.8194    0.0000 C   0  0  0  0  0  0  0  0  0  0  0  0
   -5.7880    8.1182    0.0000 C   0  0  0  0  0  0  0  0  0  0  0  0
   -7.2880    8.1178    0.0000 C   0  0  0  0  0  0  0  0  0  0  0  0
   -8.0375    6.8185    0.0000 O   0  0  0  0  0  0  0  0  0  0  0  0
   -8.0384    9.4166    0.0000 N   0  0  0  0  0  0  0  0  0  0  0  0
   -9.5384    9.4161    0.0000 O   0  0  0  0  0  0  0  0  0  0  0  0
   -3.5363    4.2214    0.0000 O   0  0  0  0  0  0  0  0  0  0  0  0
  1  2  2  0  0  0  0 
  2  3  1  0  0  0  0 
  3  4  2  0  0  0  0 
  4  5  1  0  0  0  0 
  5  6  2  0  0  0  0 
  1  6  1  0  0  0  0 
  4  7  1  0  0  0  0 
  7  8  1  0  0  0  0 
  8  9  2  0  0  0  0 
  8 10  2  0  0  0  0 
  8 11  1  0  0  0  0 
 11 12  2  0  0  0  0 
 12 13  1  0  0  0  0 
 13 14  2  0  0  0  0 
 14 15  1  0  0  0  0 
 15 16  2  0  0  0  0 
 11 16  1  0  0  0  0 
 13 17  1  0  0  0  0 
 17 18  2  0  0  0  0 
 18 19  1  4  0  0  0 
 19 20  2  0  0  0  0 
 19 21  1  0  0  0  0 
 21 22  1  0  0  0  0 
 12 23  1  0  0  0  0 
M  END
> <Rank>
5

> <Priority_score>
0.42999999999999994

> <Reaction_type>
aromatic hydroxylation

> <Parent_ID>
1

> <Parent_InChI>
InChI=1S/C15H14N2O4S/c18-15(16-19)10-9-12-5-4-8-14(11-12)22(20,21)17-13-6-2-1-3-7-13/h1-11,17,19H,(H,16,18)/b10-9+

> <Parent_SMILES>
C1([H])=C([H])C([H])=C(C([H])=C1[H])N([H])S(=O)(=O)C2=C([H])C(=C([H])C([H])=C2[H])/C(/[H])=C(\[H])/C(=O)N([H])O[H]

$$$$

  CDK     1017240638

 23 24  0  0  0  0  0  0  0  0999 V2000
   -5.8912    2.1177    0.0000 C   0  0  0  0  0  0  0  0  0  0  0  0
   -5.8917    3.6186    0.0000 C   0  0  0  0  0  0  0  0  0  0  0  0
   -4.5927    4.3686    0.0000 C   0  0  0  0  0  0  0  0  0  0  0  0
   -3.2932    3.6177    0.0000 C   0  0  0  0  0  0  0  0  0  0  0  0
   -3.2927    2.1169    0.0000 C   0  0  0  0  0  0  0  0  0  0  0  0
   -4.5917    1.3669    0.0000 C   0  0  0  0  0  0  0  0  0  0  0  0
   -1.9941    4.3677    0.0000 N   0  0  0  0  0  0  0  0  0  0  0  0
   -1.9941    5.8677    0.0000 S   0  0  0  0  0  0  0  0  0  0  0  0
   -2.5072    7.2773    0.0000 O   0  0  0  0  0  0  0  0  0  0  0  0
   -3.4713    5.6073    0.0000 O   0  0  0  0  0  0  0  0  0  0  0  0
   -0.6951    6.6177    0.0000 C   0  0  0  0  0  0  0  0  0  0  0  0
   -0.6948    8.1186    0.0000 C   0  0  0  0  0  0  0  0  0  0  0  0
    0.6046    8.8696    0.0000 C   0  0  0  0  0  0  0  0  0  0  0  0
    1.9037    8.1198    0.0000 C   0  0  0  0  0  0  0  0  0  0  0  0
    1.9035    6.6190    0.0000 C   0  0  0  0  0  0  0  0  0  0  0  0
    0.6041    5.8680    0.0000 C   0  0  0  0  0  0  0  0  0  0  0  0
    3.2026    5.8692    0.0000 C   0  0  0  0  0  0  0  0  0  0  0  0
    4.5015    6.6194    0.0000 C   0  0  0  0  0  0  0  0  0  0  0  0
    5.8007    5.8696    0.0000 C   0  0  0  0  0  0  0  0  0  0  0  0
    5.8009    4.3696    0.0000 O   0  0  0  0  0  0  0  0  0  0  0  0
    7.0996    6.6198    0.0000 N   0  0  0  0  0  0  0  0  0  0  0  0
    8.3988    5.8700    0.0000 O   0  0  0  0  0  0  0  0  0  0  0  0
    3.2028    8.8698    0.0000 O   0  0  0  0  0  0  0  0  0  0  0  0
  1  2  2  0  0  0  0 
  2  3  1  0  0  0  0 
  3  4  2  0  0  0  0 
  4  5  1  0  0  0  0 
  5  6  2  0  0  0  0 
  1  6  1  0  0  0  0 
  4  7  1  0  0  0  0 
  7  8  1  0  0  0  0 
  8  9  2  0  0  0  0 
  8 10  2  0  0  0  0 
  8 11  1  0  0  0  0 
 11 12  2  0  0  0  0 
 12 13  1  0  0  0  0 
 13 14  2  0  0  0  0 
 14 15  1  0  0  0  0 
 15 16  2  0  0  0  0 
 11 16  1  0  0  0  0 
 15 17  1  0  0  0  0 
 17 18  2  0  0  0  0 
 18 19  1  4  0  0  0 
 19 20  2  0  0  0  0 
 19 21  1  0  0  0  0 
 21 22  1  0  0  0  0 
 14 23  1  0  0  0  0 
M  END
> <Rank>
6

> <Priority_score>
0.28

> <Reaction_type>
aromatic hydroxylation

> <Parent_ID>
1

> <Parent_InChI>
InChI=1S/C15H14N2O4S/c18-15(16-19)10-9-12-5-4-8-14(11-12)22(20,21)17-13-6-2-1-3-7-13/h1-11,17,19H,(H,16,18)/b10-9+

> <Parent_SMILES>
C1([H])=C([H])C([H])=C(C([H])=C1[H])N([H])S(=O)(=O)C2=C([H])C(=C([H])C([H])=C2[H])/C(/[H])=C(\[H])/C(=O)N([H])O[H]

$$$$

  CDK     1017240638

 23 24  0  0  0  0  0  0  0  0999 V2000
  -10.0692    6.5068    0.0000 C   0  0  0  0  0  0  0  0  0  0  0  0
   -8.7696    7.2576    0.0000 C   0  0  0  0  0  0  0  0  0  0  0  0
   -7.4706    6.5076    0.0000 C   0  0  0  0  0  0  0  0  0  0  0  0
   -7.4711    5.0068    0.0000 C   0  0  0  0  0  0  0  0  0  0  0  0
   -8.7706    4.2559    0.0000 C   0  0  0  0  0  0  0  0  0  0  0  0
  -10.0696    5.0059    0.0000 C   0  0  0  0  0  0  0  0  0  0  0  0
   -6.1721    4.2568    0.0000 N   0  0  0  0  0  0  0  0  0  0  0  0
   -4.8730    5.0068    0.0000 S   0  0  0  0  0  0  0  0  0  0  0  0
   -3.5740    5.7568    0.0000 O   0  0  0  0  0  0  0  0  0  0  0  0
   -4.8730    6.5068    0.0000 O   0  0  0  0  0  0  0  0  0  0  0  0
   -6.1721    5.7568    0.0000 O   0  0  0  0  0  0  0  0  0  0  0  0
   -3.5740    4.2568    0.0000 C   0  0  0  0  0  0  0  0  0  0  0  0
   -2.2741    5.0070    0.0000 C   0  0  0  0  0  0  0  0  0  0  0  0
   -0.9740    4.2572    0.0000 C   0  0  0  0  0  0  0  0  0  0  0  0
   -0.9737    2.7572    0.0000 C   0  0  0  0  0  0  0  0  0  0  0  0
   -2.2736    2.0070    0.0000 C   0  0  0  0  0  0  0  0  0  0  0  0
   -3.5737    2.7568    0.0000 C   0  0  0  0  0  0  0  0  0  0  0  0
    0.3248    5.0076    0.0000 C   0  0  0  0  0  0  0  0  0  0  0  0
    1.6241    4.2580    0.0000 C   0  0  0  0  0  0  0  0  0  0  0  0
    2.9229    5.0084    0.0000 C   0  0  0  0  0  0  0  0  0  0  0  0
    2.9224    6.5084    0.0000 O   0  0  0  0  0  0  0  0  0  0  0  0
    4.2222    4.2589    0.0000 N   0  0  0  0  0  0  0  0  0  0  0  0
    5.5210    5.0093    0.0000 O   0  0  0  0  0  0  0  0  0  0  0  0
  1  2  2  0  0  0  0 
  2  3  1  0  0  0  0 
  3  4  2  0  0  0  0 
  4  5  1  0  0  0  0 
  5  6  2  0  0  0  0 
  1  6  1  0  0  0  0 
  4  7  1  0  0  0  0 
  7  8  1  0  0  0  0 
  8  9  2  0  0  0  0 
  8 10  2  0  0  0  0 
  8 11  2  0  0  0  0 
  8 12  1  0  0  0  0 
 12 13  2  0  0  0  0 
 13 14  1  0  0  0  0 
 14 15  2  0  0  0  0 
 15 16  1  0  0  0  0 
 16 17  2  0  0  0  0 
 12 17  1  0  0  0  0 
 14 18  1  0  0  0  0 
 18 19  2  0  0  0  0 
 19 20  1  4  0  0  0 
 20 21  2  0  0  0  0 
 20 22  1  0  0  0  0 
 22 23  1  0  0  0  0 
M  END
> <Rank>
7

> <Priority_score>
0.26

> <Reaction_type>
S-oxidation

> <Parent_ID>
1

> <Parent_InChI>
InChI=1S/C15H14N2O4S/c18-15(16-19)10-9-12-5-4-8-14(11-12)22(20,21)17-13-6-2-1-3-7-13/h1-11,17,19H,(H,16,18)/b10-9+

> <Parent_SMILES>
C1([H])=C([H])C([H])=C(C([H])=C1[H])N([H])S(=O)(=O)C2=C([H])C(=C([H])C([H])=C2[H])/C(/[H])=C(\[H])/C(=O)N([H])O[H]

$$$$

  CDK     1017240638

 23 24  0  0  0  0  0  0  0  0999 V2000
  -10.0692    6.5068    0.0000 C   0  0  0  0  0  0  0  0  0  0  0  0
   -8.7696    7.2576    0.0000 C   0  0  0  0  0  0  0  0  0  0  0  0
   -7.4706    6.5076    0.0000 C   0  0  0  0  0  0  0  0  0  0  0  0
   -7.4711    5.0068    0.0000 C   0  0  0  0  0  0  0  0  0  0  0  0
   -8.7706    4.2559    0.0000 C   0  0  0  0  0  0  0  0  0  0  0  0
  -10.0696    5.0059    0.0000 C   0  0  0  0  0  0  0  0  0  0  0  0
   -6.1721    4.2568    0.0000 N   0  0  0  0  0  0  0  0  0  0  0  0
   -4.8730    5.0068    0.0000 S   0  0  0  0  0  0  0  0  0  0  0  0
   -3.9088    6.1558    0.0000 O   0  0  0  0  0  0  0  0  0  0  0  0
   -5.8372    6.1558    0.0000 O   0  0  0  0  0  0  0  0  0  0  0  0
   -3.5740    4.2568    0.0000 C   0  0  0  0  0  0  0  0  0  0  0  0
   -2.2741    5.0070    0.0000 C   0  0  0  0  0  0  0  0  0  0  0  0
   -0.9740    4.2572    0.0000 C   0  0  0  0  0  0  0  0  0  0  0  0
   -0.9737    2.7572    0.0000 C   0  0  0  0  0  0  0  0  0  0  0  0
   -2.2736    2.0070    0.0000 C   0  0  0  0  0  0  0  0  0  0  0  0
   -3.5737    2.7568    0.0000 C   0  0  0  0  0  0  0  0  0  0  0  0
   -4.8725    2.0064    0.0000 O   0  0  0  0  0  0  0  0  0  0  0  0
    0.3248    5.0076    0.0000 C   0  0  0  0  0  0  0  0  0  0  0  0
    1.6241    4.2580    0.0000 C   0  0  0  0  0  0  0  0  0  0  0  0
    2.9229    5.0084    0.0000 C   0  0  0  0  0  0  0  0  0  0  0  0
    2.9224    6.5084    0.0000 O   0  0  0  0  0  0  0  0  0  0  0  0
    4.2222    4.2589    0.0000 N   0  0  0  0  0  0  0  0  0  0  0  0
    5.5210    5.0093    0.0000 O   0  0  0  0  0  0  0  0  0  0  0  0
  1  2  2  0  0  0  0 
  2  3  1  0  0  0  0 
  3  4  2  0  0  0  0 
  4  5  1  0  0  0  0 
  5  6  2  0  0  0  0 
  1  6  1  0  0  0  0 
  4  7  1  0  0  0  0 
  7  8  1  0  0  0  0 
  8  9  2  0  0  0  0 
  8 10  2  0  0  0  0 
  8 11  1  0  0  0  0 
 11 12  2  0  0  0  0 
 12 13  1  0  0  0  0 
 13 14  2  0  0  0  0 
 14 15  1  0  0  0  0 
 15 16  2  0  0  0  0 
 11 16  1  0  0  0  0 
 16 17  1  0  0  0  0 
 13 18  1  0  0  0  0 
 18 19  2  0  0  0  0 
 19 20  1  4  0  0  0 
 20 21  2  0  0  0  0 
 20 22  1  0  0  0  0 
 22 23  1  0  0  0  0 
M  END
> <Rank>
8

> <Priority_score>
0.25

> <Reaction_type>
aromatic hydroxylation

> <Parent_ID>
1

> <Parent_InChI>
InChI=1S/C15H14N2O4S/c18-15(16-19)10-9-12-5-4-8-14(11-12)22(20,21)17-13-6-2-1-3-7-13/h1-11,17,19H,(H,16,18)/b10-9+

> <Parent_SMILES>
C1([H])=C([H])C([H])=C(C([H])=C1[H])N([H])S(=O)(=O)C2=C([H])C(=C([H])C([H])=C2[H])/C(/[H])=C(\[H])/C(=O)N([H])O[H]

$$$$

  CDK     1017240638

 23 24  0  0  0  0  0  0  0  0999 V2000
    7.1245    5.1972    0.0000 C   0  0  0  0  0  0  0  0  0  0  0  0
    6.3745    3.8972    0.0000 C   0  0  0  0  0  0  0  0  0  0  0  0
    4.8745    3.8972    0.0000 C   0  0  0  0  0  0  0  0  0  0  0  0
    4.1245    5.1972    0.0000 C   0  0  0  0  0  0  0  0  0  0  0  0
    4.8745    6.4972    0.0000 C   0  0  0  0  0  0  0  0  0  0  0  0
    6.3745    6.4972    0.0000 C   0  0  0  0  0  0  0  0  0  0  0  0
    2.6245    5.1972    0.0000 N   0  0  0  0  0  0  0  0  0  0  0  0
    1.8745    3.8982    0.0000 S   0  0  0  0  0  0  0  0  0  0  0  0
    1.6140    2.4210    0.0000 O   0  0  0  0  0  0  0  0  0  0  0  0
    3.2840    3.3851    0.0000 O   0  0  0  0  0  0  0  0  0  0  0  0
    0.3745    3.8982    0.0000 C   0  0  0  0  0  0  0  0  0  0  0  0
   -0.3762    2.5985    0.0000 C   0  0  0  0  0  0  0  0  0  0  0  0
   -1.8770    2.5978    0.0000 C   0  0  0  0  0  0  0  0  0  0  0  0
   -2.6272    3.8967    0.0000 C   0  0  0  0  0  0  0  0  0  0  0  0
   -1.8766    5.1964    0.0000 C   0  0  0  0  0  0  0  0  0  0  0  0
   -0.3758    5.1971    0.0000 C   0  0  0  0  0  0  0  0  0  0  0  0
   -2.6268    6.4953    0.0000 C   0  0  0  0  0  0  0  0  0  0  0  0
   -4.1268    6.4951    0.0000 C   0  0  0  0  0  0  0  0  0  0  0  0
   -4.8770    7.7940    0.0000 C   0  0  0  0  0  0  0  0  0  0  0  0
   -4.1272    9.0931    0.0000 O   0  0  0  0  0  0  0  0  0  0  0  0
   -6.3770    7.7937    0.0000 N   0  0  0  0  0  0  0  0  0  0  0  0
   -7.1272    9.0926    0.0000 O   0  0  0  0  0  0  0  0  0  0  0  0
   -2.6266    1.2985    0.0000 O   0  0  0  0  0  0  0  0  0  0  0  0
  1  2  2  0  0  0  0 
  2  3  1  0  0  0  0 
  3  4  2  0  0  0  0 
  4  5  1  0  0  0  0 
  5  6  2  0  0  0  0 
  1  6  1  0  0  0  0 
  4  7  1  0  0  0  0 
  7  8  1  0  0  0  0 
  8  9  2  0  0  0  0 
  8 10  2  0  0  0  0 
  8 11  1  0  0  0  0 
 11 12  2  0  0  0  0 
 12 13  1  0  0  0  0 
 13 14  2  0  0  0  0 
 14 15  1  0  0  0  0 
 15 16  2  0  0  0  0 
 11 16  1  0  0  0  0 
 15 17  1  0  0  0  0 
 17 18  2  0  0  0  0 
 18 19  1  4  0  0  0 
 19 20  2  0  0  0  0 
 19 21  1  0  0  0  0 
 21 22  1  0  0  0  0 
 13 23  1  0  0  0  0 
M  END
> <Rank>
8

> <Priority_score>
0.25

> <Reaction_type>
aromatic hydroxylation

> <Parent_ID>
1

> <Parent_InChI>
InChI=1S/C15H14N2O4S/c18-15(16-19)10-9-12-5-4-8-14(11-12)22(20,21)17-13-6-2-1-3-7-13/h1-11,17,19H,(H,16,18)/b10-9+

> <Parent_SMILES>
C1([H])=C([H])C([H])=C(C([H])=C1[H])N([H])S(=O)(=O)C2=C([H])C(=C([H])C([H])=C2[H])/C(/[H])=C(\[H])/C(=O)N([H])O[H]

$$$$

  CDK     1017240638

 23 24  0  0  0  0  0  0  0  0999 V2000
    1.1004   -4.6437    0.0000 C   0  0  0  0  0  0  0  0  0  0  0  0
    0.3504   -3.3437    0.0000 C   0  0  0  0  0  0  0  0  0  0  0  0
    1.1004   -2.0437    0.0000 C   0  0  0  0  0  0  0  0  0  0  0  0
    2.6004   -2.0437    0.0000 C   0  0  0  0  0  0  0  0  0  0  0  0
    3.3504   -3.3437    0.0000 C   0  0  0  0  0  0  0  0  0  0  0  0
    2.6004   -4.6437    0.0000 C   0  0  0  0  0  0  0  0  0  0  0  0
    4.8504   -3.3437    0.0000 C   0  0  0  0  0  0  0  0  0  0  0  0
    5.6004   -4.6427    0.0000 C   0  0  0  0  0  0  0  0  0  0  0  0
    7.1004   -4.6427    0.0000 C   0  0  0  0  0  0  0  0  0  0  0  0
    7.8504   -3.3437    0.0000 O   0  0  0  0  0  0  0  0  0  0  0  0
    7.8504   -5.9418    0.0000 N   0  0  0  0  0  0  0  0  0  0  0  0
    9.3504   -5.9418    0.0000 O   0  0  0  0  0  0  0  0  0  0  0  0
    0.3501   -0.7448    0.0000 S   0  0  0  0  0  0  0  0  0  0  0  0
    1.7596   -0.2315    0.0000 O   0  0  0  0  0  0  0  0  0  0  0  0
    0.0894    0.7324    0.0000 O   0  0  0  0  0  0  0  0  0  0  0  0
   -1.1499   -0.7450    0.0000 N   0  0  0  0  0  0  0  0  0  0  0  0
   -1.9001    0.5539    0.0000 C   0  0  0  0  0  0  0  0  0  0  0  0
   -3.4001    0.5582    0.0000 C   0  0  0  0  0  0  0  0  0  0  0  0
   -4.1563    1.8604    0.0000 C   0  0  0  0  0  0  0  0  0  0  0  0
   -3.3925    3.1582    0.0000 C   0  0  0  0  0  0  0  0  0  0  0  0
   -1.8925    3.1539    0.0000 C   0  0  0  0  0  0  0  0  0  0  0  0
   -1.1563    1.8517    0.0000 C   0  0  0  0  0  0  0  0  0  0  0  0
   -1.1348    4.4484    0.0000 O   0  0  0  0  0  0  0  0  0  0  0  0
  1  2  2  0  0  0  0 
  2  3  1  0  0  0  0 
  3  4  2  0  0  0  0 
  4  5  1  0  0  0  0 
  5  6  2  0  0  0  0 
  1  6  1  0  0  0  0 
  5  7  1  0  0  0  0 
  7  8  2  0  0  0  0 
  8  9  1  4  0  0  0 
  9 10  2  0  0  0  0 
  9 11  1  0  0  0  0 
 11 12  1  0  0  0  0 
  3 13  1  0  0  0  0 
 13 14  2  0  0  0  0 
 13 15  2  0  0  0  0 
 13 16  1  0  0  0  0 
 16 17  1  0  0  0  0 
 17 18  2  0  0  0  0 
 18 19  1  0  0  0  0 
 19 20  2  0  0  0  0 
 20 21  1  0  0  0  0 
 21 22  2  0  0  0  0 
 17 22  1  0  0  0  0 
 21 23  1  0  0  0  0 
M  END
> <Rank>
10

> <Priority_score>
0.18

> <Reaction_type>
aromatic hydroxylation

> <Parent_ID>
1

> <Parent_InChI>
InChI=1S/C15H14N2O4S/c18-15(16-19)10-9-12-5-4-8-14(11-12)22(20,21)17-13-6-2-1-3-7-13/h1-11,17,19H,(H,16,18)/b10-9+

> <Parent_SMILES>
C1([H])=C([H])C([H])=C(C([H])=C1[H])N([H])S(=O)(=O)C2=C([H])C(=C([H])C([H])=C2[H])/C(/[H])=C(\[H])/C(=O)N([H])O[H]

$$$$

  CDK     1017240638

 23 24  0  0  0  0  0  0  0  0999 V2000
   -3.2526    4.1319    0.0000 C   0  0  0  0  0  0  0  0  0  0  0  0
   -1.9530    3.3811    0.0000 C   0  0  0  0  0  0  0  0  0  0  0  0
   -0.6540    4.1311    0.0000 C   0  0  0  0  0  0  0  0  0  0  0  0
   -0.6545    5.6319    0.0000 C   0  0  0  0  0  0  0  0  0  0  0  0
   -1.9490    6.3741    0.0000 C   0  0  0  0  0  0  0  0  0  0  0  0
   -3.2480    5.6241    0.0000 C   0  0  0  0  0  0  0  0  0  0  0  0
    0.6433    6.3841    0.0000 O   0  0  0  0  0  0  0  0  0  0  0  0
    0.6452    3.3813    0.0000 N   0  0  0  0  0  0  0  0  0  0  0  0
    0.6454    1.8813    0.0000 S   0  0  0  0  0  0  0  0  0  0  0  0
   -0.8319    2.1415    0.0000 O   0  0  0  0  0  0  0  0  0  0  0  0
    0.1326    0.4717    0.0000 O   0  0  0  0  0  0  0  0  0  0  0  0
    1.9446    1.1315    0.0000 C   0  0  0  0  0  0  0  0  0  0  0  0
    3.2443    1.8819    0.0000 C   0  0  0  0  0  0  0  0  0  0  0  0
    4.5446    1.1324    0.0000 C   0  0  0  0  0  0  0  0  0  0  0  0
    4.5450   -0.3676    0.0000 C   0  0  0  0  0  0  0  0  0  0  0  0
    3.2453   -1.1181    0.0000 C   0  0  0  0  0  0  0  0  0  0  0  0
    1.9450   -0.3685    0.0000 C   0  0  0  0  0  0  0  0  0  0  0  0
    5.8432    1.8830    0.0000 C   0  0  0  0  0  0  0  0  0  0  0  0
    7.1426    1.1336    0.0000 C   0  0  0  0  0  0  0  0  0  0  0  0
    8.4413    1.8842    0.0000 C   0  0  0  0  0  0  0  0  0  0  0  0
    8.4406    3.3842    0.0000 O   0  0  0  0  0  0  0  0  0  0  0  0
    9.7407    1.1348    0.0000 N   0  0  0  0  0  0  0  0  0  0  0  0
   11.0394    1.8855    0.0000 O   0  0  0  0  0  0  0  0  0  0  0  0
  1  2  2  0  0  0  0 
  2  3  1  0  0  0  0 
  3  4  2  0  0  0  0 
  4  5  1  0  0  0  0 
  5  6  2  0  0  0  0 
  1  6  1  0  0  0  0 
  4  7  1  0  0  0  0 
  3  8  1  0  0  0  0 
  8  9  1  0  0  0  0 
  9 10  2  0  0  0  0 
  9 11  2  0  0  0  0 
  9 12  1  0  0  0  0 
 12 13  2  0  0  0  0 
 13 14  1  0  0  0  0 
 14 15  2  0  0  0  0 
 15 16  1  0  0  0  0 
 16 17  2  0  0  0  0 
 12 17  1  0  0  0  0 
 14 18  1  0  0  0  0 
 18 19  2  0  0  0  0 
 19 20  1  4  0  0  0 
 20 21  2  0  0  0  0 
 20 22  1  0  0  0  0 
 22 23  1  0  0  0  0 
M  END
> <Rank>
11

> <Priority_score>
0.16

> <Reaction_type>
aromatic hydroxylation

> <Parent_ID>
1

> <Parent_InChI>
InChI=1S/C15H14N2O4S/c18-15(16-19)10-9-12-5-4-8-14(11-12)22(20,21)17-13-6-2-1-3-7-13/h1-11,17,19H,(H,16,18)/b10-9+

> <Parent_SMILES>
C1([H])=C([H])C([H])=C(C([H])=C1[H])N([H])S(=O)(=O)C2=C([H])C(=C([H])C([H])=C2[H])/C(/[H])=C(\[H])/C(=O)N([H])O[H]

$$$$
