
  CDK     1017240645

 22 21  0  0  0  0  0  0  0  0999 V2000
    9.2102   -4.2975    0.0000 C   0  0  0  0  0  0  0  0  0  0  0  0
   10.5092   -5.0475    0.0000 C   0  0  0  0  0  0  0  0  0  0  0  0
   11.8083   -4.2975    0.0000 O   0  0  0  0  0  0  0  0  0  0  0  0
    7.9111   -5.0475    0.0000 C   0  0  0  0  0  0  0  0  0  0  0  0
    6.6121   -4.2975    0.0000 C   0  0  0  0  0  0  0  0  0  0  0  0
    6.6121   -2.7975    0.0000 C   0  0  0  0  0  0  0  0  0  0  0  0
    4.8974   -1.8075    0.0000 C   0  0  0  0  0  0  0  0  0  0  0  0
    4.8974    0.1725    0.0000 C   0  0  0  0  0  0  0  0  0  0  0  0
    3.5983    0.9225    0.0000 C   0  0  0  0  0  0  0  0  0  0  0  0
    2.2993    0.1725    0.0000 F   0  0  0  0  0  0  0  0  0  0  0  0
    2.6342    2.0716    0.0000 F   0  0  0  0  0  0  0  0  0  0  0  0
    4.5625    2.0716    0.0000 F   0  0  0  0  0  0  0  0  0  0  0  0
    6.3746   -0.0880    0.0000 F   0  0  0  0  0  0  0  0  0  0  0  0
    5.4104    1.5820    0.0000 F   0  0  0  0  0  0  0  0  0  0  0  0
    3.4202   -1.5470    0.0000 F   0  0  0  0  0  0  0  0  0  0  0  0
    4.3843   -3.2170    0.0000 F   0  0  0  0  0  0  0  0  0  0  0  0
    8.0893   -3.0580    0.0000 F   0  0  0  0  0  0  0  0  0  0  0  0
    7.1251   -1.3880    0.0000 F   0  0  0  0  0  0  0  0  0  0  0  0
    5.1349   -4.0370    0.0000 F   0  0  0  0  0  0  0  0  0  0  0  0
    6.0991   -5.7070    0.0000 F   0  0  0  0  0  0  0  0  0  0  0  0
    8.8753   -6.1966    0.0000 F   0  0  0  0  0  0  0  0  0  0  0  0
    6.9470   -6.1966    0.0000 F   0  0  0  0  0  0  0  0  0  0  0  0
  1  2  1  0  0  0  0 
  2  3  2  0  0  0  0 
  1  4  1  0  0  0  0 
  4  5  1  0  0  0  0 
  5  6  1  0  0  0  0 
  6  7  1  0  0  0  0 
  7  8  1  0  0  0  0 
  8  9  1  0  0  0  0 
  9 10  1  0  0  0  0 
  9 11  1  0  0  0  0 
  9 12  1  0  0  0  0 
  8 13  1  0  0  0  0 
  8 14  1  0  0  0  0 
  7 15  1  0  0  0  0 
  7 16  1  0  0  0  0 
  6 17  1  0  0  0  0 
  6 18  1  0  0  0  0 
  5 19  1  0  0  0  0 
  5 20  1  0  0  0  0 
  4 21  1  0  0  0  0 
  4 22  1  0  0  0  0 
M  END
> <Rank>
1

> <Priority_score>
1.34

> <Reaction_type>
alcohol oxidation

> <Parent_ID>
1

> <Parent_InChI>
InChI=1S/C8H5F13O/c9-3(10,1-2-22)4(11,12)5(13,14)6(15,16)7(17,18)8(19,20)21/h22H,1-2H2

> <Parent_SMILES>
C([H])([H])(C([H])([H])O[H])C(C(C(C(C(C(F)(F)F)(F)F)(F)F)(F)F)(F)F)(F)F

$$$$

  CDK     1017240645

 23 22  0  0  0  0  0  0  0  0999 V2000
    8.3695   -3.8122    0.0000 C   0  0  0  0  0  0  0  0  0  0  0  0
    9.6686   -4.5622    0.0000 C   0  0  0  0  0  0  0  0  0  0  0  0
   10.9676   -3.8122    0.0000 O   0  0  0  0  0  0  0  0  0  0  0  0
    9.6686   -6.0622    0.0000 O   0  0  0  0  0  0  0  0  0  0  0  0
    7.0705   -4.5622    0.0000 C   0  0  0  0  0  0  0  0  0  0  0  0
    5.7715   -3.8122    0.0000 C   0  0  0  0  0  0  0  0  0  0  0  0
    5.7715   -2.3122    0.0000 C   0  0  0  0  0  0  0  0  0  0  0  0
    4.0567   -1.3222    0.0000 C   0  0  0  0  0  0  0  0  0  0  0  0
    4.0567    0.6578    0.0000 C   0  0  0  0  0  0  0  0  0  0  0  0
    2.7577    1.4078    0.0000 C   0  0  0  0  0  0  0  0  0  0  0  0
    1.4586    0.6578    0.0000 F   0  0  0  0  0  0  0  0  0  0  0  0
    1.7935    2.5569    0.0000 F   0  0  0  0  0  0  0  0  0  0  0  0
    3.7219    2.5569    0.0000 F   0  0  0  0  0  0  0  0  0  0  0  0
    5.5339    0.3974    0.0000 F   0  0  0  0  0  0  0  0  0  0  0  0
    4.5698    2.0674    0.0000 F   0  0  0  0  0  0  0  0  0  0  0  0
    2.5795   -1.0617    0.0000 F   0  0  0  0  0  0  0  0  0  0  0  0
    3.5437   -2.7317    0.0000 F   0  0  0  0  0  0  0  0  0  0  0  0
    7.2487   -2.5726    0.0000 F   0  0  0  0  0  0  0  0  0  0  0  0
    6.2845   -0.9026    0.0000 F   0  0  0  0  0  0  0  0  0  0  0  0
    4.2942   -3.5517    0.0000 F   0  0  0  0  0  0  0  0  0  0  0  0
    5.2584   -5.2217    0.0000 F   0  0  0  0  0  0  0  0  0  0  0  0
    8.0347   -5.7112    0.0000 F   0  0  0  0  0  0  0  0  0  0  0  0
    6.1063   -5.7112    0.0000 F   0  0  0  0  0  0  0  0  0  0  0  0
  1  2  1  0  0  0  0 
  2  3  1  0  0  0  0 
  2  4  1  0  0  0  0 
  1  5  1  0  0  0  0 
  5  6  1  0  0  0  0 
  6  7  1  0  0  0  0 
  7  8  1  0  0  0  0 
  8  9  1  0  0  0  0 
  9 10  1  0  0  0  0 
 10 11  1  0  0  0  0 
 10 12  1  0  0  0  0 
 10 13  1  0  0  0  0 
  9 14  1  0  0  0  0 
  9 15  1  0  0  0  0 
  8 16  1  0  0  0  0 
  8 17  1  0  0  0  0 
  7 18  1  0  0  0  0 
  7 19  1  0  0  0  0 
  6 20  1  0  0  0  0 
  6 21  1  0  0  0  0 
  5 22  1  0  0  0  0 
  5 23  1  0  0  0  0 
M  END
> <Rank>
1

> <Priority_score>
1.34

> <Reaction_type>
aliphatic hydroxylation

> <Parent_ID>
1

> <Parent_InChI>
InChI=1S/C8H5F13O/c9-3(10,1-2-22)4(11,12)5(13,14)6(15,16)7(17,18)8(19,20)21/h22H,1-2H2

> <Parent_SMILES>
C([H])([H])(C([H])([H])O[H])C(C(C(C(C(C(F)(F)F)(F)F)(F)F)(F)F)(F)F)(F)F

$$$$

  CDK     1017240645

 23 22  0  0  0  0  0  0  0  0999 V2000
    0.7052   -1.3409    0.0000 C   0  0  0  0  0  0  0  0  0  0  0  0
    2.0042   -0.5909    0.0000 C   0  0  0  0  0  0  0  0  0  0  0  0
    3.3032   -1.3409    0.0000 C   0  0  0  0  0  0  0  0  0  0  0  0
    5.0180   -0.3509    0.0000 C   0  0  0  0  0  0  0  0  0  0  0  0
    6.3170   -1.1009    0.0000 C   0  0  0  0  0  0  0  0  0  0  0  0
    8.0317   -0.1109    0.0000 C   0  0  0  0  0  0  0  0  0  0  0  0
    9.7465   -1.1009    0.0000 C   0  0  0  0  0  0  0  0  0  0  0  0
   11.0455   -0.3509    0.0000 C   0  0  0  0  0  0  0  0  0  0  0  0
   11.0455    1.1491    0.0000 F   0  0  0  0  0  0  0  0  0  0  0  0
   12.5227   -0.0905    0.0000 F   0  0  0  0  0  0  0  0  0  0  0  0
   11.5585   -1.7605    0.0000 F   0  0  0  0  0  0  0  0  0  0  0  0
    8.7823   -2.2500    0.0000 F   0  0  0  0  0  0  0  0  0  0  0  0
   10.7107   -2.2500    0.0000 F   0  0  0  0  0  0  0  0  0  0  0  0
    8.9959    1.0381    0.0000 F   0  0  0  0  0  0  0  0  0  0  0  0
    7.0676    1.0381    0.0000 F   0  0  0  0  0  0  0  0  0  0  0  0
    5.3528   -2.2500    0.0000 F   0  0  0  0  0  0  0  0  0  0  0  0
    7.2812   -2.2500    0.0000 F   0  0  0  0  0  0  0  0  0  0  0  0
    5.9822    0.7981    0.0000 F   0  0  0  0  0  0  0  0  0  0  0  0
    4.0538    0.7981    0.0000 F   0  0  0  0  0  0  0  0  0  0  0  0
    2.3391   -2.4900    0.0000 F   0  0  0  0  0  0  0  0  0  0  0  0
    4.2674   -2.4900    0.0000 F   0  0  0  0  0  0  0  0  0  0  0  0
    2.0042    0.9091    0.0000 O   0  0  0  0  0  0  0  0  0  0  0  0
   -0.5939   -0.5909    0.0000 O   0  0  0  0  0  0  0  0  0  0  0  0
  1  2  1  0  0  0  0 
  2  3  1  0  0  0  0 
  3  4  1  0  0  0  0 
  4  5  1  0  0  0  0 
  5  6  1  0  0  0  0 
  6  7  1  0  0  0  0 
  7  8  1  0  0  0  0 
  8  9  1  0  0  0  0 
  8 10  1  0  0  0  0 
  8 11  1  0  0  0  0 
  7 12  1  0  0  0  0 
  7 13  1  0  0  0  0 
  6 14  1  0  0  0  0 
  6 15  1  0  0  0  0 
  5 16  1  0  0  0  0 
  5 17  1  0  0  0  0 
  4 18  1  0  0  0  0 
  4 19  1  0  0  0  0 
  3 20  1  0  0  0  0 
  3 21  1  0  0  0  0 
  2 22  1  0  0  0  0 
  1 23  1  0  0  0  0 
M  END
> <Rank>
3

> <Priority_score>
0.74

> <Reaction_type>
aliphatic hydroxylation

> <Parent_ID>
1

> <Parent_InChI>
InChI=1S/C8H5F13O/c9-3(10,1-2-22)4(11,12)5(13,14)6(15,16)7(17,18)8(19,20)21/h22H,1-2H2

> <Parent_SMILES>
C([H])([H])(C([H])([H])O[H])C(C(C(C(C(C(F)(F)F)(F)F)(F)F)(F)F)(F)F)(F)F

$$$$

  CDK     1017240645

 22 21  0  0  0  0  0  0  0  0999 V2000
    9.2102   -4.2975    0.0000 C   0  0  0  0  0  0  0  0  0  0  0  0
   10.5092   -5.0475    0.0000 C   0  0  0  0  0  0  0  0  0  0  0  0
   11.8083   -4.2975    0.0000 O   0  0  0  0  0  0  0  0  0  0  0  0
    7.9111   -5.0475    0.0000 C   0  0  0  0  0  0  0  0  0  0  0  0
    6.6121   -4.2975    0.0000 C   0  0  0  0  0  0  0  0  0  0  0  0
    6.6121   -2.7975    0.0000 C   0  0  0  0  0  0  0  0  0  0  0  0
    4.8974   -1.8075    0.0000 C   0  0  0  0  0  0  0  0  0  0  0  0
    4.8974    0.1725    0.0000 C   0  0  0  0  0  0  0  0  0  0  0  0
    3.5983    0.9225    0.0000 C   0  0  0  0  0  0  0  0  0  0  0  0
    2.2993    0.1725    0.0000 F   0  0  0  0  0  0  0  0  0  0  0  0
    2.6342    2.0716    0.0000 F   0  0  0  0  0  0  0  0  0  0  0  0
    4.5625    2.0716    0.0000 F   0  0  0  0  0  0  0  0  0  0  0  0
    6.3746   -0.0880    0.0000 F   0  0  0  0  0  0  0  0  0  0  0  0
    5.4104    1.5820    0.0000 F   0  0  0  0  0  0  0  0  0  0  0  0
    3.4202   -1.5470    0.0000 F   0  0  0  0  0  0  0  0  0  0  0  0
    4.3843   -3.2170    0.0000 F   0  0  0  0  0  0  0  0  0  0  0  0
    8.0893   -3.0580    0.0000 F   0  0  0  0  0  0  0  0  0  0  0  0
    7.1251   -1.3880    0.0000 F   0  0  0  0  0  0  0  0  0  0  0  0
    5.1349   -4.0370    0.0000 F   0  0  0  0  0  0  0  0  0  0  0  0
    6.0991   -5.7070    0.0000 F   0  0  0  0  0  0  0  0  0  0  0  0
    8.8753   -6.1966    0.0000 F   0  0  0  0  0  0  0  0  0  0  0  0
    6.9470   -6.1966    0.0000 F   0  0  0  0  0  0  0  0  0  0  0  0
  1  2  2  0  0  0  0 
  2  3  1  4  0  0  0 
  1  4  1  0  0  0  0 
  4  5  1  0  0  0  0 
  5  6  1  0  0  0  0 
  6  7  1  0  0  0  0 
  7  8  1  0  0  0  0 
  8  9  1  0  0  0  0 
  9 10  1  0  0  0  0 
  9 11  1  0  0  0  0 
  9 12  1  0  0  0  0 
  8 13  1  0  0  0  0 
  8 14  1  0  0  0  0 
  7 15  1  0  0  0  0 
  7 16  1  0  0  0  0 
  6 17  1  0  0  0  0 
  6 18  1  0  0  0  0 
  5 19  1  0  0  0  0 
  5 20  1  0  0  0  0 
  4 21  1  0  0  0  0 
  4 22  1  0  0  0  0 
M  END
> <Rank>
4

> <Priority_score>
0.268

> <Reaction_type>
alkyl dehydrogenation

> <Parent_ID>
1

> <Parent_InChI>
InChI=1S/C8H5F13O/c9-3(10,1-2-22)4(11,12)5(13,14)6(15,16)7(17,18)8(19,20)21/h22H,1-2H2

> <Parent_SMILES>
C([H])([H])(C([H])([H])O[H])C(C(C(C(C(C(F)(F)F)(F)F)(F)F)(F)F)(F)F)(F)F

$$$$

  CDK     1017240645

 20 19  0  0  0  0  0  0  0  0999 V2000
    9.2844   -3.8603    0.0000 C   0  0  0  0  0  0  0  0  0  0  0  0
   10.5834   -4.6103    0.0000 C   0  0  0  0  0  0  0  0  0  0  0  0
   11.8825   -3.8603    0.0000 O   0  0  0  0  0  0  0  0  0  0  0  0
    7.9854   -4.6103    0.0000 C   0  0  0  0  0  0  0  0  0  0  0  0
    6.6863   -3.8603    0.0000 C   0  0  0  0  0  0  0  0  0  0  0  0
    6.6863   -2.3603    0.0000 C   0  0  0  0  0  0  0  0  0  0  0  0
    5.3873   -1.6103    0.0000 C   0  0  0  0  0  0  0  0  0  0  0  0
    5.3873   -0.1103    0.0000 C   0  0  0  0  0  0  0  0  0  0  0  0
    4.0882    0.6397    0.0000 C   0  0  0  0  0  0  0  0  0  0  0  0
    4.0882    2.1397    0.0000 F   0  0  0  0  0  0  0  0  0  0  0  0
    2.6110    0.9001    0.0000 F   0  0  0  0  0  0  0  0  0  0  0  0
    3.5752   -0.7699    0.0000 F   0  0  0  0  0  0  0  0  0  0  0  0
    6.6863    0.6397    0.0000 F   0  0  0  0  0  0  0  0  0  0  0  0
    4.0882   -2.3603    0.0000 F   0  0  0  0  0  0  0  0  0  0  0  0
    8.1635   -2.6208    0.0000 F   0  0  0  0  0  0  0  0  0  0  0  0
    7.1994   -0.9508    0.0000 F   0  0  0  0  0  0  0  0  0  0  0  0
    5.2091   -3.5999    0.0000 F   0  0  0  0  0  0  0  0  0  0  0  0
    6.1733   -5.2699    0.0000 F   0  0  0  0  0  0  0  0  0  0  0  0
    8.9495   -5.7594    0.0000 F   0  0  0  0  0  0  0  0  0  0  0  0
    7.0212   -5.7594    0.0000 F   0  0  0  0  0  0  0  0  0  0  0  0
  1  2  1  0  0  0  0 
  2  3  1  0  0  0  0 
  1  4  1  0  0  0  0 
  4  5  1  0  0  0  0 
  5  6  1  0  0  0  0 
  6  7  1  0  0  0  0 
  7  8  2  0  0  0  0 
  8  9  1  0  0  0  0 
  9 10  1  0  0  0  0 
  9 11  1  0  0  0  0 
  9 12  1  0  0  0  0 
  8 13  1  0  0  0  0 
  7 14  1  4  0  0  0 
  6 15  1  0  0  0  0 
  6 16  1  0  0  0  0 
  5 17  1  0  0  0  0 
  5 18  1  0  0  0  0 
  4 19  1  0  0  0  0 
  4 20  1  0  0  0  0 
M  END
> <Rank>
5

> <Priority_score>
0.15

> <Reaction_type>
reductive dehalogenation

> <Parent_ID>
1

> <Parent_InChI>
InChI=1S/C8H5F13O/c9-3(10,1-2-22)4(11,12)5(13,14)6(15,16)7(17,18)8(19,20)21/h22H,1-2H2

> <Parent_SMILES>
C([H])([H])(C([H])([H])O[H])C(C(C(C(C(C(F)(F)F)(F)F)(F)F)(F)F)(F)F)(F)F

$$$$

  CDK     1017240645

 20 19  0  0  0  0  0  0  0  0999 V2000
    9.4922   -4.2203    0.0000 C   0  0  0  0  0  0  0  0  0  0  0  0
   10.7913   -4.9703    0.0000 C   0  0  0  0  0  0  0  0  0  0  0  0
   12.0903   -4.2203    0.0000 O   0  0  0  0  0  0  0  0  0  0  0  0
    8.1932   -4.9703    0.0000 C   0  0  0  0  0  0  0  0  0  0  0  0
    6.8942   -4.2203    0.0000 C   0  0  0  0  0  0  0  0  0  0  0  0
    6.8942   -2.2403    0.0000 C   0  0  0  0  0  0  0  0  0  0  0  0
    5.5951   -1.4903    0.0000 C   0  0  0  0  0  0  0  0  0  0  0  0
    5.5951    0.0097    0.0000 C   0  0  0  0  0  0  0  0  0  0  0  0
    4.2961    0.7597    0.0000 C   0  0  0  0  0  0  0  0  0  0  0  0
    4.2961    2.2597    0.0000 F   0  0  0  0  0  0  0  0  0  0  0  0
    2.9971    0.0097    0.0000 F   0  0  0  0  0  0  0  0  0  0  0  0
    6.8942    0.7597    0.0000 F   0  0  0  0  0  0  0  0  0  0  0  0
    4.1179   -1.2299    0.0000 F   0  0  0  0  0  0  0  0  0  0  0  0
    5.0821   -2.8999    0.0000 F   0  0  0  0  0  0  0  0  0  0  0  0
    8.3714   -2.5008    0.0000 F   0  0  0  0  0  0  0  0  0  0  0  0
    7.4072   -0.8308    0.0000 F   0  0  0  0  0  0  0  0  0  0  0  0
    5.4170   -3.9599    0.0000 F   0  0  0  0  0  0  0  0  0  0  0  0
    6.3811   -5.6299    0.0000 F   0  0  0  0  0  0  0  0  0  0  0  0
    9.1574   -6.1194    0.0000 F   0  0  0  0  0  0  0  0  0  0  0  0
    7.2290   -6.1194    0.0000 F   0  0  0  0  0  0  0  0  0  0  0  0
  1  2  1  0  0  0  0 
  2  3  1  0  0  0  0 
  1  4  1  0  0  0  0 
  4  5  1  0  0  0  0 
  5  6  1  0  0  0  0 
  6  7  1  0  0  0  0 
  7  8  1  0  0  0  0 
  8  9  2  0  0  0  0 
  9 10  1  0  0  0  0 
  9 11  1  0  0  0  0 
  8 12  1  0  0  0  0 
  7 13  1  0  0  0  0 
  7 14  1  0  0  0  0 
  6 15  1  0  0  0  0 
  6 16  1  0  0  0  0 
  5 17  1  0  0  0  0 
  5 18  1  0  0  0  0 
  4 19  1  0  0  0  0 
  4 20  1  0  0  0  0 
M  END
> <Rank>
5

> <Priority_score>
0.15

> <Reaction_type>
reductive dehalogenation

> <Parent_ID>
1

> <Parent_InChI>
InChI=1S/C8H5F13O/c9-3(10,1-2-22)4(11,12)5(13,14)6(15,16)7(17,18)8(19,20)21/h22H,1-2H2

> <Parent_SMILES>
C([H])([H])(C([H])([H])O[H])C(C(C(C(C(C(F)(F)F)(F)F)(F)F)(F)F)(F)F)(F)F

$$$$

  CDK     1017240645

 20 19  0  0  0  0  0  0  0  0999 V2000
    2.5981   -0.0000    0.0000 C   0  0  0  0  0  0  0  0  0  0  0  0
    1.2990   -0.7500    0.0000 C   0  0  0  0  0  0  0  0  0  0  0  0
    0.0000    0.0000    0.0000 O   0  0  0  0  0  0  0  0  0  0  0  0
    3.8971   -0.7500    0.0000 C   0  0  0  0  0  0  0  0  0  0  0  0
    5.1962   -0.0000    0.0000 C   0  0  0  0  0  0  0  0  0  0  0  0
    6.4952   -0.7500    0.0000 C   0  0  0  0  0  0  0  0  0  0  0  0
    8.2099    0.2400    0.0000 C   0  0  0  0  0  0  0  0  0  0  0  0
    9.5090   -0.5100    0.0000 C   0  0  0  0  0  0  0  0  0  0  0  0
   10.8080    0.2400    0.0000 C   0  0  0  0  0  0  0  0  0  0  0  0
   10.8080    1.7400    0.0000 F   0  0  0  0  0  0  0  0  0  0  0  0
   12.2852    0.5005    0.0000 F   0  0  0  0  0  0  0  0  0  0  0  0
   11.3210   -1.1695    0.0000 F   0  0  0  0  0  0  0  0  0  0  0  0
    8.5448   -1.6591    0.0000 F   0  0  0  0  0  0  0  0  0  0  0  0
   10.4731   -1.6591    0.0000 F   0  0  0  0  0  0  0  0  0  0  0  0
    9.1741    1.3891    0.0000 F   0  0  0  0  0  0  0  0  0  0  0  0
    7.2457    1.3891    0.0000 F   0  0  0  0  0  0  0  0  0  0  0  0
    5.5310   -1.8991    0.0000 F   0  0  0  0  0  0  0  0  0  0  0  0
    7.4594   -1.8991    0.0000 F   0  0  0  0  0  0  0  0  0  0  0  0
    5.1962    1.5000    0.0000 F   0  0  0  0  0  0  0  0  0  0  0  0
    3.8971   -2.2500    0.0000 F   0  0  0  0  0  0  0  0  0  0  0  0
  1  2  1  0  0  0  0 
  2  3  1  0  0  0  0 
  1  4  1  0  0  0  0 
  4  5  2  0  0  0  0 
  5  6  1  0  0  0  0 
  6  7  1  0  0  0  0 
  7  8  1  0  0  0  0 
  8  9  1  0  0  0  0 
  9 10  1  0  0  0  0 
  9 11  1  0  0  0  0 
  9 12  1  0  0  0  0 
  8 13  1  0  0  0  0 
  8 14  1  0  0  0  0 
  7 15  1  0  0  0  0 
  7 16  1  0  0  0  0 
  6 17  1  0  0  0  0 
  6 18  1  0  0  0  0 
  5 19  1  0  0  0  0 
  4 20  1  4  0  0  0 
M  END
> <Rank>
7

> <Priority_score>
0.132

> <Reaction_type>
reductive dehalogenation

> <Parent_ID>
1

> <Parent_InChI>
InChI=1S/C8H5F13O/c9-3(10,1-2-22)4(11,12)5(13,14)6(15,16)7(17,18)8(19,20)21/h22H,1-2H2

> <Parent_SMILES>
C([H])([H])(C([H])([H])O[H])C(C(C(C(C(C(F)(F)F)(F)F)(F)F)(F)F)(F)F)(F)F

$$$$

  CDK     1017240645

 20 19  0  0  0  0  0  0  0  0999 V2000
    9.2714   -0.7500    0.0000 C   0  0  0  0  0  0  0  0  0  0  0  0
   10.5705   -0.0000    0.0000 C   0  0  0  0  0  0  0  0  0  0  0  0
   11.8695   -0.7500    0.0000 O   0  0  0  0  0  0  0  0  0  0  0  0
    7.9724   -0.0000    0.0000 C   0  0  0  0  0  0  0  0  0  0  0  0
    6.6734   -0.7500    0.0000 C   0  0  0  0  0  0  0  0  0  0  0  0
    5.3743   -0.0000    0.0000 C   0  0  0  0  0  0  0  0  0  0  0  0
    4.0753   -0.7500    0.0000 C   0  0  0  0  0  0  0  0  0  0  0  0
    2.7762    0.0000    0.0000 C   0  0  0  0  0  0  0  0  0  0  0  0
    1.4772   -0.7500    0.0000 C   0  0  0  0  0  0  0  0  0  0  0  0
    1.4772   -2.2500    0.0000 F   0  0  0  0  0  0  0  0  0  0  0  0
    0.0000   -1.0105    0.0000 F   0  0  0  0  0  0  0  0  0  0  0  0
    0.9642    0.6595    0.0000 F   0  0  0  0  0  0  0  0  0  0  0  0
    3.7404    1.1491    0.0000 F   0  0  0  0  0  0  0  0  0  0  0  0
    1.8121    1.1491    0.0000 F   0  0  0  0  0  0  0  0  0  0  0  0
    3.1111   -1.8991    0.0000 F   0  0  0  0  0  0  0  0  0  0  0  0
    5.0395   -1.8991    0.0000 F   0  0  0  0  0  0  0  0  0  0  0  0
    5.3743    1.5000    0.0000 F   0  0  0  0  0  0  0  0  0  0  0  0
    6.6734   -2.2500    0.0000 F   0  0  0  0  0  0  0  0  0  0  0  0
    8.9366    1.1491    0.0000 F   0  0  0  0  0  0  0  0  0  0  0  0
    7.0082    1.1491    0.0000 F   0  0  0  0  0  0  0  0  0  0  0  0
  1  2  1  0  0  0  0 
  2  3  1  0  0  0  0 
  1  4  1  0  0  0  0 
  4  5  1  0  0  0  0 
  5  6  2  0  0  0  0 
  6  7  1  0  0  0  0 
  7  8  1  0  0  0  0 
  8  9  1  0  0  0  0 
  9 10  1  0  0  0  0 
  9 11  1  0  0  0  0 
  9 12  1  0  0  0  0 
  8 13  1  0  0  0  0 
  8 14  1  0  0  0  0 
  7 15  1  0  0  0  0 
  7 16  1  0  0  0  0 
  6 17  1  0  0  0  0 
  5 18  1  4  0  0  0 
  4 19  1  0  0  0  0 
  4 20  1  0  0  0  0 
M  END
> <Rank>
7

> <Priority_score>
0.132

> <Reaction_type>
reductive dehalogenation

> <Parent_ID>
1

> <Parent_InChI>
InChI=1S/C8H5F13O/c9-3(10,1-2-22)4(11,12)5(13,14)6(15,16)7(17,18)8(19,20)21/h22H,1-2H2

> <Parent_SMILES>
C([H])([H])(C([H])([H])O[H])C(C(C(C(C(C(F)(F)F)(F)F)(F)F)(F)F)(F)F)(F)F

$$$$

  CDK     1017240645

 20 19  0  0  0  0  0  0  0  0999 V2000
    2.5981   -0.0000    0.0000 C   0  0  0  0  0  0  0  0  0  0  0  0
    1.2990   -0.7500    0.0000 C   0  0  0  0  0  0  0  0  0  0  0  0
    0.0000    0.0000    0.0000 O   0  0  0  0  0  0  0  0  0  0  0  0
    3.8971   -0.7500    0.0000 C   0  0  0  0  0  0  0  0  0  0  0  0
    5.1962   -0.0000    0.0000 C   0  0  0  0  0  0  0  0  0  0  0  0
    6.4952   -0.7500    0.0000 C   0  0  0  0  0  0  0  0  0  0  0  0
    7.7942   -0.0000    0.0000 C   0  0  0  0  0  0  0  0  0  0  0  0
    9.0933   -0.7500    0.0000 C   0  0  0  0  0  0  0  0  0  0  0  0
   10.3923   -0.0000    0.0000 C   0  0  0  0  0  0  0  0  0  0  0  0
   11.6913   -0.7500    0.0000 F   0  0  0  0  0  0  0  0  0  0  0  0
   11.3565    1.1491    0.0000 F   0  0  0  0  0  0  0  0  0  0  0  0
    9.4281    1.1491    0.0000 F   0  0  0  0  0  0  0  0  0  0  0  0
    8.1291   -1.8991    0.0000 F   0  0  0  0  0  0  0  0  0  0  0  0
   10.0574   -1.8991    0.0000 F   0  0  0  0  0  0  0  0  0  0  0  0
    7.7942    1.5000    0.0000 F   0  0  0  0  0  0  0  0  0  0  0  0
    6.4952   -2.2500    0.0000 F   0  0  0  0  0  0  0  0  0  0  0  0
    6.1603    1.1491    0.0000 F   0  0  0  0  0  0  0  0  0  0  0  0
    4.2320    1.1491    0.0000 F   0  0  0  0  0  0  0  0  0  0  0  0
    2.9329   -1.8991    0.0000 F   0  0  0  0  0  0  0  0  0  0  0  0
    4.8613   -1.8991    0.0000 F   0  0  0  0  0  0  0  0  0  0  0  0
  1  2  1  0  0  0  0 
  2  3  1  0  0  0  0 
  1  4  1  0  0  0  0 
  4  5  1  0  0  0  0 
  5  6  1  0  0  0  0 
  6  7  2  0  0  0  0 
  7  8  1  0  0  0  0 
  8  9  1  0  0  0  0 
  9 10  1  0  0  0  0 
  9 11  1  0  0  0  0 
  9 12  1  0  0  0  0 
  8 13  1  0  0  0  0 
  8 14  1  0  0  0  0 
  7 15  1  0  0  0  0 
  6 16  1  4  0  0  0 
  5 17  1  0  0  0  0 
  5 18  1  0  0  0  0 
  4 19  1  0  0  0  0 
  4 20  1  0  0  0  0 
M  END
> <Rank>
9

> <Priority_score>
0.112

> <Reaction_type>
reductive dehalogenation

> <Parent_ID>
1

> <Parent_InChI>
InChI=1S/C8H5F13O/c9-3(10,1-2-22)4(11,12)5(13,14)6(15,16)7(17,18)8(19,20)21/h22H,1-2H2

> <Parent_SMILES>
C([H])([H])(C([H])([H])O[H])C(C(C(C(C(C(F)(F)F)(F)F)(F)F)(F)F)(F)F)(F)F

$$$$
