
     RDKit          2D

 55 57  0  0  0  0  0  0  0  0999 V2000
    5.2500    3.8971    0.0000 N   0  0  0  0  0  0  0  0  0  3  0  0
    4.5000    2.5981    0.0000 C   0  0  0  0  0  0  0  0  0 13  0  0
    6.7500    3.8971    0.0000 C   0  0  0  0  0  0  0  0  0 15  0  0
    3.7500    1.2990    0.0000 C   0  0  0  0  0  0  0  0  0 12  0  0
    3.2010    3.3481    0.0000 H   0  0  0  0  0  0  0  0  0  0  0  0
    5.7990    1.8481    0.0000 H   0  0  0  0  0  0  0  0  0  0  0  0
    3.0000    0.0000    0.0000 O   0  0  0  0  0  0  0  0  0  1  0  0
    5.0490    0.5490    0.0000 H   0  0  0  0  0  0  0  0  0  0  0  0
    2.4510    2.0490    0.0000 H   0  0  0  0  0  0  0  0  0  0  0  0
    1.5000    0.0000    0.0000 C   0  0  0  0  0  0  0  0  0 11  0  0
    0.7500   -1.2990    0.0000 C   0  0  0  0  0  0  0  0  0 10  0  0
    0.7500    1.2990    0.0000 C   0  0  0  0  0  0  0  0  0 16  0  0
   -0.7500   -1.2990    0.0000 C   0  0  0  0  0  0  0  0  0  9  0  0
    1.5000   -2.5981    0.0000 H   0  0  0  0  0  0  0  0  0  0  0  0
   -0.7500    1.2990    0.0000 C   0  0  0  0  0  0  0  0  0 17  0  0
    1.5000    2.5981    0.0000 H   0  0  0  0  0  0  0  0  0  0  0  0
   -1.5000    0.0000    0.0000 C   0  0  0  0  0  0  0  0  0  8  0  0
   -0.9697   -2.0653    0.0000 H   0  0  0  0  0  0  0  0  0  0  0  0
   -1.3361    2.6798    0.0000 H   0  0  0  0  0  0  0  0  0  0  0  0
   -3.0000    0.0000    0.0000 C   0  0  0  0  0  0  0  0  0  7  0  0
   -3.7500   -1.2990    0.0000 C   0  0  0  0  0  0  0  0  0  6  0  0
   -3.7500    1.2990    0.0000 C   0  0  0  0  0  0  0  0  0 18  0  0
   -5.2500   -1.2990    0.0000 C   0  0  0  0  0  0  0  0  0  5  0  0
   -3.0000   -2.5981    0.0000 C   0  0  0  0  0  0  0  0  0 24  0  0
   -3.0000    2.5981    0.0000 C   0  0  0  0  0  0  0  0  0 19  0  0
   -5.2500    1.2990    0.0000 C   0  0  0  0  0  0  0  0  0 23  0  0
   -6.7500   -1.2990    0.0000 C   0  0  0  0  0  0  0  0  0  4  0  0
   -5.2500   -2.7990    0.0000 H   0  0  0  0  0  0  0  0  0  0  0  0
   -5.4328    0.1898    0.0000 H   0  0  0  0  0  0  0  0  0  0  0  0
   -3.7500   -3.8971    0.0000 C   0  0  0  0  0  0  0  0  0 25  0  0
   -1.5000   -2.5981    0.0000 C   0  0  0  0  0  0  0  0  0 29  0  0
   -3.7500    3.8971    0.0000 C   0  0  0  0  0  0  0  0  0 20  0  0
   -1.5112    2.7809    0.0000 H   0  0  0  0  0  0  0  0  0  0  0  0
   -6.0000    2.5981    0.0000 C   0  0  0  0  0  0  0  0  0 22  0  0
   -6.2920    0.2201    0.0000 H   0  0  0  0  0  0  0  0  0  0  0  0
   -6.7500   -2.7990    0.0000 H   0  0  0  0  0  0  0  0  0  0  0  0
   -6.9328    0.1898    0.0000 H   0  0  0  0  0  0  0  0  0  0  0  0
   -8.2500   -1.2990    0.0000 H   0  0  0  0  0  0  0  0  0  0  0  0
   -3.0000   -5.1962    0.0000 C   0  0  0  0  0  0  0  0  0 26  0  0
   -5.2500   -3.8971    0.0000 H   0  0  0  0  0  0  0  0  0  0  0  0
   -0.7500   -3.8971    0.0000 C   0  0  0  0  0  0  0  0  0 28  0  0
   -0.4580   -1.5191    0.0000 H   0  0  0  0  0  0  0  0  0  0  0  0
   -5.2500    3.8971    0.0000 C   0  0  0  0  0  0  0  0  0 21  0  0
   -3.0000    5.1962    0.0000 H   0  0  0  0  0  0  0  0  0  0  0  0
   -7.5000    2.5981    0.0000 O   0  0  0  0  0  0  0  0  0  2  0  0
   -1.5000   -5.1962    0.0000 C   0  0  0  0  0  0  0  0  0 27  0  0
   -3.7500   -6.4952    0.0000 H   0  0  0  0  0  0  0  0  0  0  0  0
    0.7500   -3.8971    0.0000 H   0  0  0  0  0  0  0  0  0  0  0  0
   -6.0000    5.1962    0.0000 H   0  0  0  0  0  0  0  0  0  0  0  0
   -8.2500    3.8971    0.0000 H   0  0  0  0  0  0  0  0  0  0  0  0
   -0.7500   -6.4952    0.0000 H   0  0  0  0  0  0  0  0  0  0  0  0
    6.7500    5.3971    0.0000 H   0  0  0  0  0  0  0  0  0  0  0  0
    6.7500    2.3971    0.0000 H   0  0  0  0  0  0  0  0  0  0  0  0
    8.2500    3.8971    0.0000 H   0  0  0  0  0  0  0  0  0  0  0  0
    4.5000    5.1962    0.0000 H   0  0  0  0  0  0  0  0  0  0  0  0
  1  2  1  0
  1  3  1  0
  4  2  1  0
  2  5  1  0
  2  6  1  0
  7  4  1  0
  4  8  1  0
  4  9  1  0
  7 10  1  0
 10 11  2  0
 12 10  1  0
 11 13  1  0
 11 14  1  0
 15 12  2  0
 12 16  1  0
 13 17  2  0
 13 18  1  0
 17 15  1  0
 15 19  1  0
 17 20  1  0
 20 21  2  0
 20 22  1  0
 21 23  1  0
 21 24  1  0
 22 25  2  0
 26 22  1  0
 23 27  1  0
 23 28  1  0
 23 29  1  0
 24 30  2  0
 31 24  1  0
 25 32  1  0
 25 33  1  0
 34 26  2  0
 26 35  1  0
 27 36  1  0
 27 37  1  0
 27 38  1  0
 30 39  1  0
 30 40  1  0
 41 31  2  0
 31 42  1  0
 32 43  2  0
 32 44  1  0
 43 34  1  0
 34 45  1  0
 39 46  2  0
 39 47  1  0
 46 41  1  0
 41 48  1  0
 43 49  1  0
 45 50  1  0
 46 51  1  0
  3 52  1  0
  3 53  1  0
  3 54  1  0
  1 55  1  0
M  END
>  <SMILES>  (1) 
CCC(=C(c1ccc(OCCNC)cc1)c1cccc(O)c1)c1ccccc1

>  <Molecular Weight>  (1) 
373.5

>  <Substrate_ID>  (1) 
MOL0093

>  <Substrate>  (1) 


>  <Substrate_SMILES>  (1) 
CCC(=C(c1ccc(OCCN(C)C)cc1)c1cccc(O)c1)c1ccccc1

>  <Reaction>  (1) 
N-demethylation_(tertiary_amine)

>  <Score>  (1) 
0.901

>  <Reaction_Score>  (1) 
0.8863

>  <Bond_Score>  (1) 
0.9159

>  <Rank>  (1) 
1

>  <Subtype>  (1) 
REACTION

>  <Subtype_Scores>  (1) 
[REACTION] SOM_score: 0.9159, Reaction_score: 0.8863, Score: 0.9010


$$$$

     RDKit          2D

 59 61  0  0  0  0  0  0  0  0999 V2000
    1.5000   -2.5981    0.0000 C   0  0  0  0  0  0  0  0  0  7  0  0
    0.7500   -1.2990    0.0000 C   0  0  0  0  0  0  0  0  0 18  0  0
    1.5000    0.0000    0.0000 C   0  0  0  0  0  0  0  0  0 23  0  0
    0.7500    1.2990    0.0000 C   0  0  0  0  0  0  0  0  0 22  0  0
   -0.7500    1.2990    0.0000 C   0  0  0  0  0  0  0  0  0 21  0  0
   -1.5000    2.5981    0.0000 O   0  0  0  0  0  0  0  0  0 30  0  0
   -1.5000    0.0000    0.0000 C   0  0  0  0  0  0  0  0  0 20  0  0
   -0.7500   -1.2990    0.0000 C   0  0  0  0  0  0  0  0  0 19  0  0
    3.0000   -2.5981    0.0000 C   0  0  0  0  0  0  0  0  0  8  0  0
    0.7500   -3.8971    0.0000 C   0  0  0  0  0  0  0  0  0  6  0  0
    3.7500   -1.2990    0.0000 C   0  0  0  0  0  0  0  0  0  9  0  0
    3.7500   -3.8971    0.0000 C   0  0  0  0  0  0  0  0  0 17  0  0
   -0.7500   -3.8971    0.0000 C   0  0  0  0  0  0  0  0  0  5  0  0
    1.5000   -5.1962    0.0000 C   0  0  0  0  0  0  0  0  0 24  0  0
    5.2500   -1.2990    0.0000 C   0  0  0  0  0  0  0  0  0 10  0  0
    3.1639    0.0817    0.0000 H   0  0  0  0  0  0  0  0  0  0  0  0
    5.2500   -3.8971    0.0000 C   0  0  0  0  0  0  0  0  0 16  0  0
    3.5303   -4.6634    0.0000 H   0  0  0  0  0  0  0  0  0  0  0  0
   -2.2500   -3.8971    0.0000 C   0  0  0  0  0  0  0  0  0  4  0  0
   -0.7500   -5.3971    0.0000 H   0  0  0  0  0  0  0  0  0  0  0  0
   -0.9328   -2.4083    0.0000 H   0  0  0  0  0  0  0  0  0  0  0  0
    0.7500   -6.4952    0.0000 C   0  0  0  0  0  0  0  0  0 25  0  0
    3.0000   -5.1962    0.0000 C   0  0  0  0  0  0  0  0  0 29  0  0
    6.0000   -2.5981    0.0000 C   0  0  0  0  0  0  0  0  0 11  0  0
    6.0000    0.0000    0.0000 H   0  0  0  0  0  0  0  0  0  0  0  0
    6.0000   -5.1962    0.0000 H   0  0  0  0  0  0  0  0  0  0  0  0
   -2.2500   -5.3971    0.0000 H   0  0  0  0  0  0  0  0  0  0  0  0
   -2.4328   -2.4083    0.0000 H   0  0  0  0  0  0  0  0  0  0  0  0
   -3.7500   -3.8971    0.0000 H   0  0  0  0  0  0  0  0  0  0  0  0
    1.5000   -7.7942    0.0000 C   0  0  0  0  0  0  0  0  0 26  0  0
   -0.7500   -6.4952    0.0000 H   0  0  0  0  0  0  0  0  0  0  0  0
    3.7500   -6.4952    0.0000 C   0  0  0  0  0  0  0  0  0 28  0  0
    4.0420   -4.1172    0.0000 H   0  0  0  0  0  0  0  0  0  0  0  0
    7.5000   -2.5981    0.0000 O   0  0  0  0  0  0  0  0  0  1  0  0
    3.0000   -7.7942    0.0000 C   0  0  0  0  0  0  0  0  0 27  0  0
    0.7500   -9.0933    0.0000 H   0  0  0  0  0  0  0  0  0  0  0  0
    5.2500   -6.4952    0.0000 H   0  0  0  0  0  0  0  0  0  0  0  0
    8.2500   -1.2990    0.0000 C   0  0  0  0  0  0  0  0  0 12  0  0
    3.7500   -9.0933    0.0000 H   0  0  0  0  0  0  0  0  0  0  0  0
    9.0000    0.0000    0.0000 C   0  0  0  0  0  0  0  0  0 13  0  0
    9.5490   -2.0490    0.0000 H   0  0  0  0  0  0  0  0  0  0  0  0
    6.9510   -0.5490    0.0000 H   0  0  0  0  0  0  0  0  0  0  0  0
    9.7500    1.2990    0.0000 N   0  0  0  0  0  0  0  0  0  3  0  0
   10.2990   -0.7500    0.0000 H   0  0  0  0  0  0  0  0  0  0  0  0
    7.7010    0.7500    0.0000 H   0  0  0  0  0  0  0  0  0  0  0  0
   11.2500    1.2990    0.0000 C   0  0  0  0  0  0  0  0  0 14  0  0
    9.0000    2.5981    0.0000 C   0  0  0  0  0  0  0  0  0 15  0  0
   11.2500    2.7990    0.0000 H   0  0  0  0  0  0  0  0  0  0  0  0
   11.2500   -0.2010    0.0000 H   0  0  0  0  0  0  0  0  0  0  0  0
   12.7500    1.2990    0.0000 H   0  0  0  0  0  0  0  0  0  0  0  0
   10.2990    3.3481    0.0000 H   0  0  0  0  0  0  0  0  0  0  0  0
    7.7010    1.8481    0.0000 H   0  0  0  0  0  0  0  0  0  0  0  0
    8.2500    3.8971    0.0000 H   0  0  0  0  0  0  0  0  0  0  0  0
    2.9888    0.1828    0.0000 H   0  0  0  0  0  0  0  0  0  0  0  0
    1.5000    2.5981    0.0000 O   0  0  0  0  0  0  0  0  0  2  0  0
    3.0000    2.5981    0.0000 H   0  0  0  0  0  0  0  0  0  0  0  0
   -3.0000    0.0000    0.0000 H   0  0  0  0  0  0  0  0  0  0  0  0
   -1.7920   -2.3780    0.0000 H   0  0  0  0  0  0  0  0  0  0  0  0
   -0.7500    3.8971    0.0000 H   0  0  0  0  0  0  0  0  0  0  0  0
  1  2  1  0
  2  3  2  0
  3  4  1  0
  4  5  2  0
  5  6  1  0
  5  7  1  0
  7  8  2  0
  8  2  1  0
  9  1  1  0
  1 10  2  0
 11  9  2  0
  9 12  1  0
 10 13  1  0
 10 14  1  0
 15 11  1  0
 11 16  1  0
 12 17  2  0
 12 18  1  0
 13 19  1  0
 13 20  1  0
 13 21  1  0
 14 22  2  0
 23 14  1  0
 24 15  2  0
 15 25  1  0
 17 24  1  0
 17 26  1  0
 19 27  1  0
 19 28  1  0
 19 29  1  0
 22 30  1  0
 22 31  1  0
 32 23  2  0
 23 33  1  0
 34 24  1  0
 30 35  2  0
 30 36  1  0
 35 32  1  0
 32 37  1  0
 34 38  1  0
 35 39  1  0
 38 40  1  0
 38 41  1  0
 38 42  1  0
 40 43  1  0
 40 44  1  0
 40 45  1  0
 43 46  1  0
 43 47  1  0
 46 48  1  0
 46 49  1  0
 46 50  1  0
 47 51  1  0
 47 52  1  0
 47 53  1  0
  3 54  1  0
  4 55  1  0
 55 56  1  0
  7 57  1  0
  8 58  1  0
  6 59  1  0
M  END
>  <SMILES>  (2) 
CCC(=C(c1ccc(OCCN(C)C)cc1)c1ccc(O)c(O)c1)c1ccccc1

>  <Molecular Weight>  (2) 
403.5

>  <Substrate_ID>  (2) 
MOL0093

>  <Substrate>  (2) 


>  <Substrate_SMILES>  (2) 
CCC(=C(c1ccc(OCCN(C)C)cc1)c1cccc(O)c1)c1ccccc1

>  <Reaction>  (2) 
aromatic_hydroxylation_(para_to_carbon),aromatic hydroxylation

>  <Score>  (2) 
0.3845

>  <Reaction_Score>  (2) 
0.3797

>  <Bond_Score>  (2) 
0.3894

>  <Rank>  (2) 
2

>  <Subtype>  (2) 
REACTION

>  <Subtype_Scores>  (2) 
[REACTION] SOM_score: 0.3894, Reaction_score: 0.3797, Score: 0.3845


$$$$

     RDKit          2D

 59 61  0  0  0  0  0  0  0  0999 V2000
    3.0000   -1.0981    0.0000 C   0  0  0  0  0  0  0  0  0  4  0  0
    3.0000   -2.5981    0.0000 C   0  0  0  0  0  0  0  0  0  5  0  0
    4.5000   -2.5981    0.0000 O   0  0  0  0  0  0  0  0  0 30  0  0
    1.5000   -2.5981    0.0000 C   0  0  0  0  0  0  0  0  0  6  0  0
    4.5000   -1.0981    0.0000 H   0  0  0  0  0  0  0  0  0  0  0  0
    1.8211   -0.8041    0.0000 H   0  0  0  0  0  0  0  0  0  0  0  0
    3.0972   -0.3069    0.0000 H   0  0  0  0  0  0  0  0  0  0  0  0
    3.1828   -4.0869    0.0000 H   0  0  0  0  0  0  0  0  0  0  0  0
    0.7500   -3.8971    0.0000 C   0  0  0  0  0  0  0  0  0  7  0  0
    0.7500   -1.2990    0.0000 C   0  0  0  0  0  0  0  0  0 24  0  0
   -0.7500   -3.8971    0.0000 C   0  0  0  0  0  0  0  0  0  8  0  0
    1.5000   -5.1962    0.0000 C   0  0  0  0  0  0  0  0  0 18  0  0
    1.5000    0.0000    0.0000 C   0  0  0  0  0  0  0  0  0 25  0  0
   -0.7500   -1.2990    0.0000 C   0  0  0  0  0  0  0  0  0 29  0  0
   -1.5000   -2.5981    0.0000 C   0  0  0  0  0  0  0  0  0  9  0  0
   -1.5000   -5.1962    0.0000 C   0  0  0  0  0  0  0  0  0 17  0  0
    0.7500   -6.4952    0.0000 C   0  0  0  0  0  0  0  0  0 19  0  0
    3.0000   -5.1962    0.0000 C   0  0  0  0  0  0  0  0  0 23  0  0
    0.7500    1.2990    0.0000 C   0  0  0  0  0  0  0  0  0 26  0  0
    2.2912    0.0972    0.0000 H   0  0  0  0  0  0  0  0  0  0  0  0
   -1.5000    0.0000    0.0000 C   0  0  0  0  0  0  0  0  0 28  0  0
   -1.7920   -2.3780    0.0000 H   0  0  0  0  0  0  0  0  0  0  0  0
   -3.0000   -2.5981    0.0000 C   0  0  0  0  0  0  0  0  0 10  0  0
   -1.0866   -1.1562    0.0000 H   0  0  0  0  0  0  0  0  0  0  0  0
   -3.0000   -5.1962    0.0000 C   0  0  0  0  0  0  0  0  0 16  0  0
   -0.9139   -6.5769    0.0000 H   0  0  0  0  0  0  0  0  0  0  0  0
    1.5000   -7.7942    0.0000 C   0  0  0  0  0  0  0  0  0 20  0  0
   -0.7388   -6.6780    0.0000 H   0  0  0  0  0  0  0  0  0  0  0  0
    3.7500   -6.4952    0.0000 C   0  0  0  0  0  0  0  0  0 22  0  0
    3.9028   -3.9982    0.0000 H   0  0  0  0  0  0  0  0  0  0  0  0
   -0.7500    1.2990    0.0000 C   0  0  0  0  0  0  0  0  0 27  0  0
    1.5000    2.5981    0.0000 H   0  0  0  0  0  0  0  0  0  0  0  0
   -3.0000    0.0000    0.0000 H   0  0  0  0  0  0  0  0  0  0  0  0
   -3.7500   -3.8971    0.0000 C   0  0  0  0  0  0  0  0  0 11  0  0
   -3.7500   -1.2990    0.0000 H   0  0  0  0  0  0  0  0  0  0  0  0
   -3.7500   -6.4952    0.0000 H   0  0  0  0  0  0  0  0  0  0  0  0
    3.0000   -7.7942    0.0000 C   0  0  0  0  0  0  0  0  0 21  0  0
    0.7500   -9.0933    0.0000 H   0  0  0  0  0  0  0  0  0  0  0  0
    5.2500   -6.4952    0.0000 O   0  0  0  0  0  0  0  0  0  2  0  0
   -1.5000    2.5981    0.0000 H   0  0  0  0  0  0  0  0  0  0  0  0
   -5.2500   -3.8971    0.0000 O   0  0  0  0  0  0  0  0  0  1  0  0
    3.7500   -9.0933    0.0000 H   0  0  0  0  0  0  0  0  0  0  0  0
    6.0000   -7.7942    0.0000 H   0  0  0  0  0  0  0  0  0  0  0  0
   -6.0000   -2.5981    0.0000 C   0  0  0  0  0  0  0  0  0 12  0  0
   -6.7500   -1.2990    0.0000 C   0  0  0  0  0  0  0  0  0 13  0  0
   -7.2990   -3.3481    0.0000 H   0  0  0  0  0  0  0  0  0  0  0  0
   -4.7010   -1.8481    0.0000 H   0  0  0  0  0  0  0  0  0  0  0  0
   -7.5000    0.0000    0.0000 N   0  0  0  0  0  0  0  0  0  3  0  0
   -8.0490   -2.0490    0.0000 H   0  0  0  0  0  0  0  0  0  0  0  0
   -5.4510   -0.5490    0.0000 H   0  0  0  0  0  0  0  0  0  0  0  0
   -9.0000   -0.0000    0.0000 C   0  0  0  0  0  0  0  0  0 14  0  0
   -6.7500    1.2990    0.0000 C   0  0  0  0  0  0  0  0  0 15  0  0
   -9.0000    1.5000    0.0000 H   0  0  0  0  0  0  0  0  0  0  0  0
   -9.0000   -1.5000    0.0000 H   0  0  0  0  0  0  0  0  0  0  0  0
  -10.5000   -0.0000    0.0000 H   0  0  0  0  0  0  0  0  0  0  0  0
   -8.0490    2.0490    0.0000 H   0  0  0  0  0  0  0  0  0  0  0  0
   -5.4510    0.5490    0.0000 H   0  0  0  0  0  0  0  0  0  0  0  0
   -6.0000    2.5981    0.0000 H   0  0  0  0  0  0  0  0  0  0  0  0
    5.2500   -3.8971    0.0000 H   0  0  0  0  0  0  0  0  0  0  0  0
  1  2  1  0
  2  3  1  0
  2  4  1  0
  1  5  1  0
  1  6  1  0
  1  7  1  0
  2  8  1  0
  9  4  2  0
  4 10  1  0
 11  9  1  0
  9 12  1  0
 10 13  2  0
 14 10  1  0
 15 11  2  0
 11 16  1  0
 12 17  2  0
 18 12  1  0
 13 19  1  0
 13 20  1  0
 21 14  2  0
 14 22  1  0
 23 15  1  0
 15 24  1  0
 16 25  2  0
 16 26  1  0
 17 27  1  0
 17 28  1  0
 29 18  2  0
 18 30  1  0
 19 31  2  0
 19 32  1  0
 31 21  1  0
 21 33  1  0
 34 23  2  0
 23 35  1  0
 25 34  1  0
 25 36  1  0
 27 37  2  0
 27 38  1  0
 37 29  1  0
 29 39  1  0
 31 40  1  0
 41 34  1  0
 37 42  1  0
 39 43  1  0
 41 44  1  0
 44 45  1  0
 44 46  1  0
 44 47  1  0
 45 48  1  0
 45 49  1  0
 45 50  1  0
 48 51  1  0
 48 52  1  0
 51 53  1  0
 51 54  1  0
 51 55  1  0
 52 56  1  0
 52 57  1  0
 52 58  1  0
  3 59  1  0
M  END
>  <SMILES>  (3) 
CC(O)C(=C(c1ccc(OCCN(C)C)cc1)c1cccc(O)c1)c1ccccc1

>  <Molecular Weight>  (3) 
403.5

>  <Substrate_ID>  (3) 
MOL0093

>  <Substrate>  (3) 


>  <Substrate_SMILES>  (3) 
CCC(=C(c1ccc(OCCN(C)C)cc1)c1cccc(O)c1)c1ccccc1

>  <Reaction>  (3) 
aliphatic_hydroxylation_(sec_carbon_next_to_SP2,not_in_a_ring),aliphatic hydroxylation

>  <Score>  (3) 
0.217

>  <Reaction_Score>  (3) 
0.2032

>  <Bond_Score>  (3) 
0.2317

>  <Rank>  (3) 
3

>  <Subtype>  (3) 
REACTION

>  <Subtype_Scores>  (3) 
[REACTION] SOM_score: 0.2317, Reaction_score: 0.2032, Score: 0.2170


$$$$

     RDKit          2D

 59 61  0  0  0  0  0  0  0  0999 V2000
    1.5000   -2.5981    0.0000 C   0  0  0  0  0  0  0  0  0  6  0  0
    0.7500   -1.2990    0.0000 C   0  0  0  0  0  0  0  0  0 24  0  0
    1.5000    0.0000    0.0000 C   0  0  0  0  0  0  0  0  0 29  0  0
    0.7500    1.2990    0.0000 C   0  0  0  0  0  0  0  0  0 28  0  0
   -0.7500    1.2990    0.0000 C   0  0  0  0  0  0  0  0  0 27  0  0
   -1.5000    2.5981    0.0000 O   0  0  0  0  0  0  0  0  0 30  0  0
   -1.5000   -0.0000    0.0000 C   0  0  0  0  0  0  0  0  0 26  0  0
   -0.7500   -1.2990    0.0000 C   0  0  0  0  0  0  0  0  0 25  0  0
    0.7500   -3.8971    0.0000 C   0  0  0  0  0  0  0  0  0  7  0  0
    3.0000   -2.5981    0.0000 C   0  0  0  0  0  0  0  0  0  5  0  0
   -0.7500   -3.8971    0.0000 C   0  0  0  0  0  0  0  0  0  8  0  0
    1.5000   -5.1962    0.0000 C   0  0  0  0  0  0  0  0  0 18  0  0
    4.5000   -2.5981    0.0000 C   0  0  0  0  0  0  0  0  0  4  0  0
    3.1828   -4.0869    0.0000 H   0  0  0  0  0  0  0  0  0  0  0  0
    3.0000   -1.0981    0.0000 H   0  0  0  0  0  0  0  0  0  0  0  0
   -1.5000   -5.1962    0.0000 C   0  0  0  0  0  0  0  0  0  9  0  0
   -1.5000   -2.5981    0.0000 C   0  0  0  0  0  0  0  0  0 17  0  0
    0.7500   -6.4952    0.0000 C   0  0  0  0  0  0  0  0  0 19  0  0
    3.0000   -5.1962    0.0000 C   0  0  0  0  0  0  0  0  0 23  0  0
    4.5000   -1.0981    0.0000 H   0  0  0  0  0  0  0  0  0  0  0  0
    4.6828   -4.0869    0.0000 H   0  0  0  0  0  0  0  0  0  0  0  0
    6.0000   -2.5981    0.0000 H   0  0  0  0  0  0  0  0  0  0  0  0
   -3.0000   -5.1962    0.0000 C   0  0  0  0  0  0  0  0  0 10  0  0
   -0.9139   -6.5769    0.0000 H   0  0  0  0  0  0  0  0  0  0  0  0
   -3.0000   -2.5981    0.0000 C   0  0  0  0  0  0  0  0  0 16  0  0
   -1.2803   -1.8318    0.0000 H   0  0  0  0  0  0  0  0  0  0  0  0
    1.5000   -7.7942    0.0000 C   0  0  0  0  0  0  0  0  0 20  0  0
   -0.7388   -6.6780    0.0000 H   0  0  0  0  0  0  0  0  0  0  0  0
    3.7500   -6.4952    0.0000 C   0  0  0  0  0  0  0  0  0 22  0  0
    4.0420   -4.1172    0.0000 H   0  0  0  0  0  0  0  0  0  0  0  0
   -3.7500   -3.8971    0.0000 C   0  0  0  0  0  0  0  0  0 11  0  0
   -3.7500   -6.4952    0.0000 H   0  0  0  0  0  0  0  0  0  0  0  0
   -3.7500   -1.2990    0.0000 H   0  0  0  0  0  0  0  0  0  0  0  0
    3.0000   -7.7942    0.0000 C   0  0  0  0  0  0  0  0  0 21  0  0
    0.7500   -9.0933    0.0000 H   0  0  0  0  0  0  0  0  0  0  0  0
    5.2500   -6.4952    0.0000 O   0  0  0  0  0  0  0  0  0  2  0  0
   -5.2500   -3.8971    0.0000 O   0  0  0  0  0  0  0  0  0  1  0  0
    3.7500   -9.0933    0.0000 H   0  0  0  0  0  0  0  0  0  0  0  0
    6.0000   -7.7942    0.0000 H   0  0  0  0  0  0  0  0  0  0  0  0
   -6.0000   -5.1962    0.0000 C   0  0  0  0  0  0  0  0  0 12  0  0
   -6.7500   -6.4952    0.0000 C   0  0  0  0  0  0  0  0  0 13  0  0
   -7.2990   -4.4462    0.0000 H   0  0  0  0  0  0  0  0  0  0  0  0
   -4.7010   -5.9462    0.0000 H   0  0  0  0  0  0  0  0  0  0  0  0
   -7.5000   -7.7942    0.0000 N   0  0  0  0  0  0  0  0  0  3  0  0
   -8.0490   -5.7452    0.0000 H   0  0  0  0  0  0  0  0  0  0  0  0
   -5.4510   -7.2452    0.0000 H   0  0  0  0  0  0  0  0  0  0  0  0
   -9.0000   -7.7942    0.0000 C   0  0  0  0  0  0  0  0  0 14  0  0
   -6.7500   -9.0933    0.0000 C   0  0  0  0  0  0  0  0  0 15  0  0
   -9.0000   -9.2942    0.0000 H   0  0  0  0  0  0  0  0  0  0  0  0
   -9.0000   -6.2942    0.0000 H   0  0  0  0  0  0  0  0  0  0  0  0
  -10.5000   -7.7942    0.0000 H   0  0  0  0  0  0  0  0  0  0  0  0
   -8.0490   -9.8433    0.0000 H   0  0  0  0  0  0  0  0  0  0  0  0
   -5.4510   -8.3433    0.0000 H   0  0  0  0  0  0  0  0  0  0  0  0
   -6.0000  -10.3923    0.0000 H   0  0  0  0  0  0  0  0  0  0  0  0
    3.0000    0.0000    0.0000 H   0  0  0  0  0  0  0  0  0  0  0  0
    1.5000    2.5981    0.0000 H   0  0  0  0  0  0  0  0  0  0  0  0
   -3.0000   -0.0000    0.0000 H   0  0  0  0  0  0  0  0  0  0  0  0
   -1.7920   -2.3780    0.0000 H   0  0  0  0  0  0  0  0  0  0  0  0
   -0.7500    3.8971    0.0000 H   0  0  0  0  0  0  0  0  0  0  0  0
  1  2  1  0
  2  3  2  0
  3  4  1  0
  4  5  2  0
  5  6  1  0
  5  7  1  0
  7  8  2  0
  8  2  1  0
  9  1  2  0
  1 10  1  0
 11  9  1  0
  9 12  1  0
 10 13  1  0
 10 14  1  0
 10 15  1  0
 16 11  2  0
 11 17  1  0
 12 18  2  0
 19 12  1  0
 13 20  1  0
 13 21  1  0
 13 22  1  0
 23 16  1  0
 16 24  1  0
 17 25  2  0
 17 26  1  0
 18 27  1  0
 18 28  1  0
 29 19  2  0
 19 30  1  0
 31 23  2  0
 23 32  1  0
 25 31  1  0
 25 33  1  0
 27 34  2  0
 27 35  1  0
 34 29  1  0
 29 36  1  0
 37 31  1  0
 34 38  1  0
 36 39  1  0
 37 40  1  0
 40 41  1  0
 40 42  1  0
 40 43  1  0
 41 44  1  0
 41 45  1  0
 41 46  1  0
 44 47  1  0
 44 48  1  0
 47 49  1  0
 47 50  1  0
 47 51  1  0
 48 52  1  0
 48 53  1  0
 48 54  1  0
  3 55  1  0
  4 56  1  0
  7 57  1  0
  8 58  1  0
  6 59  1  0
M  END
>  <SMILES>  (4) 
CCC(=C(c1ccc(OCCN(C)C)cc1)c1cccc(O)c1)c1ccc(O)cc1

>  <Molecular Weight>  (4) 
403.5

>  <Substrate_ID>  (4) 
MOL0093

>  <Substrate>  (4) 


>  <Substrate_SMILES>  (4) 
CCC(=C(c1ccc(OCCN(C)C)cc1)c1cccc(O)c1)c1ccccc1

>  <Reaction>  (4) 
aromatic_hydroxylation_(para_to_carbon),aromatic hydroxylation

>  <Score>  (4) 
0.2038

>  <Reaction_Score>  (4) 
0.2223

>  <Bond_Score>  (4) 
0.1868

>  <Rank>  (4) 
4

>  <Subtype>  (4) 
REACTION

>  <Subtype_Scores>  (4) 
[REACTION] SOM_score: 0.1868, Reaction_score: 0.2223, Score: 0.2038


$$$$

     RDKit          2D

 59 61  0  0  0  0  0  0  0  0999 V2000
    4.5000    2.5981    0.0000 C   0  0  0  0  0  0  0  0  0 13  0  0
    5.2500    3.8971    0.0000 N   0  0  0  0  0  4  0  0  0  3  0  0
    3.9510    4.6471    0.0000 C   0  0  0  0  0  0  0  0  0 15  0  0
    6.0000    5.1962    0.0000 C   0  0  0  0  0  0  0  0  0 14  0  0
    6.5490    3.1471    0.0000 O   0  0  0  0  0  1  0  0  0 30  0  0
    3.7500    1.2990    0.0000 C   0  0  0  0  0  0  0  0  0 12  0  0
    3.1192    3.1841    0.0000 H   0  0  0  0  0  0  0  0  0  0  0  0
    5.7990    1.8481    0.0000 H   0  0  0  0  0  0  0  0  0  0  0  0
    3.0000    0.0000    0.0000 O   0  0  0  0  0  0  0  0  0  1  0  0
    5.0490    0.5490    0.0000 H   0  0  0  0  0  0  0  0  0  0  0  0
    2.4510    2.0490    0.0000 H   0  0  0  0  0  0  0  0  0  0  0  0
    1.5000    0.0000    0.0000 C   0  0  0  0  0  0  0  0  0 11  0  0
    0.7500   -1.2990    0.0000 C   0  0  0  0  0  0  0  0  0 10  0  0
    0.7500    1.2990    0.0000 C   0  0  0  0  0  0  0  0  0 16  0  0
   -0.7500   -1.2990    0.0000 C   0  0  0  0  0  0  0  0  0  9  0  0
    1.5000   -2.5981    0.0000 H   0  0  0  0  0  0  0  0  0  0  0  0
   -0.7500    1.2990    0.0000 C   0  0  0  0  0  0  0  0  0 17  0  0
    1.5000    2.5981    0.0000 H   0  0  0  0  0  0  0  0  0  0  0  0
   -1.5000    0.0000    0.0000 C   0  0  0  0  0  0  0  0  0  8  0  0
   -0.9697   -2.0653    0.0000 H   0  0  0  0  0  0  0  0  0  0  0  0
   -1.3361    2.6798    0.0000 H   0  0  0  0  0  0  0  0  0  0  0  0
   -3.0000    0.0000    0.0000 C   0  0  0  0  0  0  0  0  0  7  0  0
   -3.7500   -1.2990    0.0000 C   0  0  0  0  0  0  0  0  0  6  0  0
   -3.7500    1.2990    0.0000 C   0  0  0  0  0  0  0  0  0 18  0  0
   -5.2500   -1.2990    0.0000 C   0  0  0  0  0  0  0  0  0  5  0  0
   -3.0000   -2.5981    0.0000 C   0  0  0  0  0  0  0  0  0 24  0  0
   -3.0000    2.5981    0.0000 C   0  0  0  0  0  0  0  0  0 19  0  0
   -5.2500    1.2990    0.0000 C   0  0  0  0  0  0  0  0  0 23  0  0
   -6.7500   -1.2990    0.0000 C   0  0  0  0  0  0  0  0  0  4  0  0
   -5.2500   -2.7990    0.0000 H   0  0  0  0  0  0  0  0  0  0  0  0
   -5.4328    0.1898    0.0000 H   0  0  0  0  0  0  0  0  0  0  0  0
   -3.7500   -3.8971    0.0000 C   0  0  0  0  0  0  0  0  0 25  0  0
   -1.5000   -2.5981    0.0000 C   0  0  0  0  0  0  0  0  0 29  0  0
   -3.7500    3.8971    0.0000 C   0  0  0  0  0  0  0  0  0 20  0  0
   -1.5112    2.7809    0.0000 H   0  0  0  0  0  0  0  0  0  0  0  0
   -6.0000    2.5981    0.0000 C   0  0  0  0  0  0  0  0  0 22  0  0
   -6.2920    0.2201    0.0000 H   0  0  0  0  0  0  0  0  0  0  0  0
   -6.7500   -2.7990    0.0000 H   0  0  0  0  0  0  0  0  0  0  0  0
   -6.9328    0.1898    0.0000 H   0  0  0  0  0  0  0  0  0  0  0  0
   -8.2500   -1.2990    0.0000 H   0  0  0  0  0  0  0  0  0  0  0  0
   -3.0000   -5.1962    0.0000 C   0  0  0  0  0  0  0  0  0 26  0  0
   -5.2500   -3.8971    0.0000 H   0  0  0  0  0  0  0  0  0  0  0  0
   -0.7500   -3.8971    0.0000 C   0  0  0  0  0  0  0  0  0 28  0  0
   -0.4580   -1.5191    0.0000 H   0  0  0  0  0  0  0  0  0  0  0  0
   -5.2500    3.8971    0.0000 C   0  0  0  0  0  0  0  0  0 21  0  0
   -3.0000    5.1962    0.0000 H   0  0  0  0  0  0  0  0  0  0  0  0
   -7.5000    2.5981    0.0000 O   0  0  0  0  0  0  0  0  0  2  0  0
   -1.5000   -5.1962    0.0000 C   0  0  0  0  0  0  0  0  0 27  0  0
   -3.7500   -6.4952    0.0000 H   0  0  0  0  0  0  0  0  0  0  0  0
    0.7500   -3.8971    0.0000 H   0  0  0  0  0  0  0  0  0  0  0  0
   -6.0000    5.1962    0.0000 H   0  0  0  0  0  0  0  0  0  0  0  0
   -8.2500    3.8971    0.0000 H   0  0  0  0  0  0  0  0  0  0  0  0
   -0.7500   -6.4952    0.0000 H   0  0  0  0  0  0  0  0  0  0  0  0
    4.5370    6.0279    0.0000 H   0  0  0  0  0  0  0  0  0  0  0  0
    3.0482    3.4492    0.0000 H   0  0  0  0  0  0  0  0  0  0  0  0
    2.6519    5.3971    0.0000 H   0  0  0  0  0  0  0  0  0  0  0  0
    7.2990    4.4462    0.0000 H   0  0  0  0  0  0  0  0  0  0  0  0
    4.8021    6.0989    0.0000 H   0  0  0  0  0  0  0  0  0  0  0  0
    6.7500    6.4952    0.0000 H   0  0  0  0  0  0  0  0  0  0  0  0
  1  2  1  0
  2  3  1  0
  2  4  1  0
  2  5  1  0
  6  1  1  0
  1  7  1  0
  1  8  1  0
  9  6  1  0
  6 10  1  0
  6 11  1  0
  9 12  1  0
 12 13  2  0
 14 12  1  0
 13 15  1  0
 13 16  1  0
 17 14  2  0
 14 18  1  0
 15 19  2  0
 15 20  1  0
 19 17  1  0
 17 21  1  0
 19 22  1  0
 22 23  2  0
 22 24  1  0
 23 25  1  0
 23 26  1  0
 24 27  2  0
 28 24  1  0
 25 29  1  0
 25 30  1  0
 25 31  1  0
 26 32  2  0
 33 26  1  0
 27 34  1  0
 27 35  1  0
 36 28  2  0
 28 37  1  0
 29 38  1  0
 29 39  1  0
 29 40  1  0
 32 41  1  0
 32 42  1  0
 43 33  2  0
 33 44  1  0
 34 45  2  0
 34 46  1  0
 45 36  1  0
 36 47  1  0
 41 48  2  0
 41 49  1  0
 48 43  1  0
 43 50  1  0
 45 51  1  0
 47 52  1  0
 48 53  1  0
  3 54  1  0
  3 55  1  0
  3 56  1  0
  4 57  1  0
  4 58  1  0
  4 59  1  0
M  CHG  2   2   1   5  -1
M  END
>  <SMILES>  (5) 
CCC(=C(c1ccc(OCC[N+](C)(C)[O-])cc1)c1cccc(O)c1)c1ccccc1

>  <Molecular Weight>  (5) 
403.5

>  <Substrate_ID>  (5) 
MOL0093

>  <Substrate>  (5) 


>  <Substrate_SMILES>  (5) 
CCC(=C(c1ccc(OCCN(C)C)cc1)c1cccc(O)c1)c1ccccc1

>  <Reaction>  (5) 
N-oxidation_(RN(CH3)2),N-oxidation

>  <Score>  (5) 
0.0705

>  <Reaction_Score>  (5) 
0.0053

>  <Bond_Score>  (5) 
0.9443

>  <Rank>  (5) 
5

>  <Subtype>  (5) 
REACTION

>  <Subtype_Scores>  (5) 
[REACTION] SOM_score: 0.9443, Reaction_score: 0.0053, Score: 0.0705


$$$$
