
     RDKit          2D

 24 24  0  0  0  0  0  0  0  0999 V2000
    3.0000    0.0000    0.0000 C   0  0  0  0  0  0  0  0  0  8  0  0
    1.5000    0.0000    0.0000 C   0  0  0  0  0  0  0  0  0  9  0  0
    0.7500   -1.2990    0.0000 C   0  0  0  0  0  0  0  0  0  7  0  0
   -0.7500   -1.2990    0.0000 C   0  0  0  0  0  0  0  0  0  5  0  0
   -1.5000    0.0000    0.0000 C   0  0  0  0  0  0  0  0  0  3  0  0
   -3.0000    0.0000    0.0000 O   0  0  0  0  0  0  0  0  0 11  0  0
   -0.7500    1.2990    0.0000 C   0  0  0  0  0  0  0  0  0  4  0  0
    0.7500    1.2990    0.0000 C   0  0  0  0  0  0  0  0  0  6  0  0
    4.5000    0.0000    0.0000 C   0  0  0  0  0  0  0  0  0 10  0  0
    2.8172   -1.4888    0.0000 H   0  0  0  0  0  0  0  0  0  0  0  0
    3.0000    1.5000    0.0000 H   0  0  0  0  0  0  0  0  0  0  0  0
    4.5000   -1.5000    0.0000 N   0  0  0  0  0  0  0  0  0  1  0  0
    6.0000    0.0000    0.0000 C   0  0  0  0  0  0  0  0  0  2  0  0
    4.5000    1.5000    0.0000 H   0  0  0  0  0  0  0  0  0  0  0  0
    5.6979   -2.4028    0.0000 H   0  0  0  0  0  0  0  0  0  0  0  0
    3.3021   -2.4028    0.0000 H   0  0  0  0  0  0  0  0  0  0  0  0
    7.5000    0.0000    0.0000 H   0  0  0  0  0  0  0  0  0  0  0  0
    6.0000    1.5000    0.0000 H   0  0  0  0  0  0  0  0  0  0  0  0
    6.1828   -1.4888    0.0000 H   0  0  0  0  0  0  0  0  0  0  0  0
    1.5000   -2.5981    0.0000 H   0  0  0  0  0  0  0  0  0  0  0  0
   -1.5000   -2.5981    0.0000 H   0  0  0  0  0  0  0  0  0  0  0  0
   -1.5000    2.5981    0.0000 H   0  0  0  0  0  0  0  0  0  0  0  0
    1.5000    2.5981    0.0000 H   0  0  0  0  0  0  0  0  0  0  0  0
   -3.7500    1.2990    0.0000 H   0  0  0  0  0  0  0  0  0  0  0  0
  1  2  1  0
  2  3  2  0
  3  4  1  0
  4  5  2  0
  5  6  1  0
  5  7  1  0
  7  8  2  0
  8  2  1  0
  9  1  1  0
  1 10  1  0
  1 11  1  0
 12  9  1  0
  9 13  1  0
  9 14  1  1
 12 15  1  0
 12 16  1  0
 13 17  1  0
 13 18  1  0
 13 19  1  0
  3 20  1  0
  4 21  1  0
  7 22  1  0
  8 23  1  0
  6 24  1  0
M  END
>  <SMILES>  (1) 
CC(N)Cc1ccc(O)cc1

>  <Molecular Weight>  (1) 
151.2

>  <Substrate_ID>  (1) 
MOL0017

>  <Substrate>  (1) 


>  <Substrate_SMILES>  (1) 
CC(N)Cc1ccccc1

>  <Reaction>  (1) 
aromatic_hydroxylation_(para_to_carbon),aromatic hydroxylation

>  <Score>  (1) 
0.1681

>  <Reaction_Score>  (1) 
0.167

>  <Bond_Score>  (1) 
0.1692

>  <Rank>  (1) 
1

>  <Subtype>  (1) 
REACTION

>  <Subtype_Scores>  (1) 
[REACTION] SOM_score: 0.1692, Reaction_score: 0.1670, Score: 0.1681


$$$$

     RDKit          2D

 24 24  0  0  0  0  0  0  0  0999 V2000
    6.0000   -0.0000    0.0000 N   0  0  0  0  0  0  0  0  0  1  0  0
    6.7500   -1.2990    0.0000 O   0  0  0  0  0  0  0  0  0 11  0  0
    8.2500   -1.2990    0.0000 H   0  0  0  0  0  0  0  0  0  0  0  0
    4.5000    0.0000    0.0000 C   0  0  0  0  0  0  0  0  0 10  0  0
    6.9028    1.1979    0.0000 H   0  0  0  0  0  0  0  0  0  0  0  0
    4.5000    1.5000    0.0000 C   0  0  0  0  0  0  0  0  0  2  0  0
    3.0000    0.0000    0.0000 C   0  0  0  0  0  0  0  0  0  8  0  0
    4.5000   -1.5000    0.0000 H   0  0  0  0  0  0  0  0  0  0  0  0
    5.9888    1.6828    0.0000 H   0  0  0  0  0  0  0  0  0  0  0  0
    3.6209    1.6080    0.0000 H   0  0  0  0  0  0  0  0  0  0  0  0
    4.5000    3.0000    0.0000 H   0  0  0  0  0  0  0  0  0  0  0  0
    1.5000    0.0000    0.0000 C   0  0  0  0  0  0  0  0  0  9  0  0
    2.8920    0.8791    0.0000 H   0  0  0  0  0  0  0  0  0  0  0  0
    3.0000   -1.5000    0.0000 H   0  0  0  0  0  0  0  0  0  0  0  0
    0.7500   -1.2990    0.0000 C   0  0  0  0  0  0  0  0  0  6  0  0
    0.7500    1.2990    0.0000 C   0  0  0  0  0  0  0  0  0  7  0  0
   -0.7500   -1.2990    0.0000 C   0  0  0  0  0  0  0  0  0  4  0  0
    1.5000   -2.5981    0.0000 H   0  0  0  0  0  0  0  0  0  0  0  0
   -0.7500    1.2990    0.0000 C   0  0  0  0  0  0  0  0  0  5  0  0
    1.5000    2.5981    0.0000 H   0  0  0  0  0  0  0  0  0  0  0  0
   -1.5000    0.0000    0.0000 C   0  0  0  0  0  0  0  0  0  3  0  0
   -1.5000   -2.5981    0.0000 H   0  0  0  0  0  0  0  0  0  0  0  0
   -1.5000    2.5981    0.0000 H   0  0  0  0  0  0  0  0  0  0  0  0
   -3.0000    0.0000    0.0000 H   0  0  0  0  0  0  0  0  0  0  0  0
  1  2  1  0
  2  3  1  0
  1  4  1  0
  1  5  1  0
  4  6  1  0
  4  7  1  0
  4  8  1  1
  6  9  1  0
  6 10  1  0
  6 11  1  0
  7 12  1  0
  7 13  1  0
  7 14  1  0
 12 15  2  0
 16 12  1  0
 15 17  1  0
 15 18  1  0
 19 16  2  0
 16 20  1  0
 17 21  2  0
 17 22  1  0
 21 19  1  0
 19 23  1  0
 21 24  1  0
M  END
>  <SMILES>  (2) 
CC(Cc1ccccc1)NO

>  <Molecular Weight>  (2) 
151.2

>  <Substrate_ID>  (2) 
MOL0017

>  <Substrate>  (2) 


>  <Substrate_SMILES>  (2) 
CC(N)Cc1ccccc1

>  <Reaction>  (2) 
amine hydroxylation

>  <Score>  (2) 
0.0718

>  <Reaction_Score>  (2) 
0.02

>  <Bond_Score>  (2) 
0.2571

>  <Rank>  (2) 
2

>  <Subtype>  (2) 
REACTION

>  <Subtype_Scores>  (2) 
[REACTION] SOM_score: 0.2571, Reaction_score: 0.0200, Score: 0.0718


$$$$
