
     RDKit          2D

 30 32  0  0  0  0  0  0  0  0999 V2000
   -1.8351    3.2209    0.0000 C   0  0  0  0  0  0  0  0  0 24  0  0
   -2.9499    4.2246    0.0000 O   0  0  0  0  0  0  0  0  0  6  0  0
   -0.4086    3.6844    0.0000 C   0  0  0  0  0  0  0  0  0  9  0  0
   -2.1470    1.7537    0.0000 C   0  0  0  0  0  0  0  0  0 13  0  0
    0.7062    2.6807    0.0000 C   0  0  0  0  0  0  0  0  0 12  0  0
   -0.0967    5.1517    0.0000 H   0  0  0  0  0  0  0  0  0  0  0  0
   -1.0323    0.7500    0.0000 C   0  0  0  0  0  0  0  0  0 30  0  0
   -3.5736    1.2902    0.0000 H   0  0  0  0  0  0  0  0  0  0  0  0
    0.3943    1.2135    0.0000 C   0  0  0  0  0  0  0  0  0 29  0  0
    2.1328    3.1443    0.0000 H   0  0  0  0  0  0  0  0  0  0  0  0
   -1.0323   -0.7500    0.0000 C   0  0  0  0  0  0  0  0  0 28  0  0
    1.2760    0.0000    0.0000 N   0  0  0  0  0  0  0  0  0  7  0  0
    0.3943   -1.2135    0.0000 C   0  0  0  0  0  0  0  0  0 27  0  0
   -1.9140   -1.9635    0.0000 C   0  0  0  0  0  0  0  0  0 17  0  0
    2.7760    0.0000    0.0000 H   0  0  0  0  0  0  0  0  0  0  0  0
    0.3943   -2.7135    0.0000 C   0  0  0  0  0  0  0  0  0 32  0  0
   -1.0323   -3.1771    0.0000 C   0  0  0  0  0  0  0  0  0 20  0  0
   -3.0287   -0.9598    0.0000 H   0  0  0  0  0  0  0  0  0  0  0  0
   -3.0287   -2.9672    0.0000 H   0  0  0  0  0  0  0  0  0  0  0  0
    0.7062   -4.1807    0.0000 C   0  0  0  0  0  0  0  0  0 21  0  0
    1.8861   -2.5567    0.0000 H   0  0  0  0  0  0  0  0  0  0  0  0
   -2.3313   -3.9271    0.0000 H   0  0  0  0  0  0  0  0  0  0  0  0
   -0.7992   -3.9394    0.0000 H   0  0  0  0  0  0  0  0  0  0  0  0
    1.0180   -5.6480    0.0000 C   0  0  0  0  0  0  0  0  0 22  0  0
   -0.0476   -4.4403    0.0000 H   0  0  0  0  0  0  0  0  0  0  0  0
    2.1734   -3.8689    0.0000 H   0  0  0  0  0  0  0  0  0  0  0  0
   -0.0967   -6.6517    0.0000 O   0  0  0  0  0  0  0  0  0  4  0  0
    2.4446   -6.1115    0.0000 O   0  0  0  0  0  0  0  0  0  5  0  0
    2.7565   -7.5787    0.0000 H   0  0  0  0  0  0  0  0  0  0  0  0
   -2.6380    5.6918    0.0000 H   0  0  0  0  0  0  0  0  0  0  0  0
  1  2  1  0
  1  3  2  0
  4  1  1  0
  3  5  1  0
  3  6  1  0
  7  4  2  0
  4  8  1  0
  5  9  2  0
  5 10  1  0
 11  7  1  0
  7  9  1  0
  9 12  1  0
 13 11  2  0
 11 14  1  0
 12 13  1  0
 12 15  1  0
 16 13  1  0
 14 17  1  0
 14 18  1  0
 14 19  1  0
 17 16  1  0
 16 20  1  0
 16 21  1  6
 17 22  1  0
 17 23  1  0
 20 24  1  0
 20 25  1  0
 20 26  1  0
 24 27  2  0
 24 28  1  0
 28 29  1  0
  2 30  1  0
M  END
>  <SMILES>  (1) 
O=C(O)CC1CCc2c1[nH]c1ccc(O)cc21

>  <Molecular Weight>  (1) 
231.3

>  <Substrate_ID>  (1) 
MOL0051

>  <Substrate>  (1) 


>  <Substrate_SMILES>  (1) 
O=C(O)CC1CCc2c1[nH]c1ccc(OCc3ccc(C4CCCC4)c(C(F)(F)F)c3)cc21

>  <Reaction>  (1) 
O-dealkylation_(aromatic)

>  <Score>  (1) 
0.4962

>  <Reaction_Score>  (1) 
0.4803

>  <Bond_Score>  (1) 
0.5126

>  <Rank>  (1) 
1

>  <Subtype>  (1) 
REACTION

>  <Subtype_Scores>  (1) 
[REACTION] SOM_score: 0.5126, Reaction_score: 0.4803, Score: 0.4962


$$$$

     RDKit          2D

 32 33  0  0  0  0  0  0  0  0999 V2000
    4.5000    0.0000    0.0000 O   0  0  0  0  0  0  0  0  0 34  0  0
    3.0000    0.0000    0.0000 C   0  0  0  0  0  0  0  0  0 16  0  0
    1.5000    0.0000    0.0000 C   0  0  0  0  0  0  0  0  0 23  0  0
    3.0000   -1.5000    0.0000 H   0  0  0  0  0  0  0  0  0  0  0  0
    3.0000    1.5000    0.0000 H   0  0  0  0  0  0  0  0  0  0  0  0
    0.7500   -1.2990    0.0000 C   0  0  0  0  0  0  0  0  0 11  0  0
    0.7500    1.2990    0.0000 C   0  0  0  0  0  0  0  0  0  8  0  0
   -0.7500   -1.2990    0.0000 C   0  0  0  0  0  0  0  0  0 26  0  0
    1.5000   -2.5981    0.0000 H   0  0  0  0  0  0  0  0  0  0  0  0
   -0.7500    1.2990    0.0000 C   0  0  0  0  0  0  0  0  0 10  0  0
    1.5000    2.5981    0.0000 H   0  0  0  0  0  0  0  0  0  0  0  0
   -1.5000   -2.5981    0.0000 C   0  0  0  0  0  0  0  0  0 33  0  0
   -1.5000    0.0000    0.0000 C   0  0  0  0  0  0  0  0  0 25  0  0
   -1.5000    2.5981    0.0000 H   0  0  0  0  0  0  0  0  0  0  0  0
   -2.2500   -3.8971    0.0000 F   0  0  0  0  0  0  0  0  0  1  0  0
   -0.2010   -3.3481    0.0000 F   0  0  0  0  0  0  0  0  0  2  0  0
   -2.6184   -2.1234    0.0000 F   0  0  0  0  0  0  0  0  0  3  0  0
   -3.0000    0.0000    0.0000 C   0  0  0  0  0  0  0  0  0 31  0  0
   -4.4672   -0.3119    0.0000 C   0  0  0  0  0  0  0  0  0 18  0  0
   -2.8432    1.4918    0.0000 C   0  0  0  0  0  0  0  0  0 19  0  0
   -3.0212   -1.2148    0.0000 H   0  0  0  0  0  0  0  0  0  0  0  0
   -5.2172    0.9872    0.0000 C   0  0  0  0  0  0  0  0  0 14  0  0
   -4.0037   -1.7385    0.0000 H   0  0  0  0  0  0  0  0  0  0  0  0
   -5.8375   -0.9220    0.0000 H   0  0  0  0  0  0  0  0  0  0  0  0
   -4.2135    2.1019    0.0000 C   0  0  0  0  0  0  0  0  0 15  0  0
   -2.3797    2.9184    0.0000 H   0  0  0  0  0  0  0  0  0  0  0  0
   -1.6289    1.5343    0.0000 H   0  0  0  0  0  0  0  0  0  0  0  0
   -6.4307    0.1055    0.0000 H   0  0  0  0  0  0  0  0  0  0  0  0
   -6.2209    2.1019    0.0000 H   0  0  0  0  0  0  0  0  0  0  0  0
   -5.4271    2.9836    0.0000 H   0  0  0  0  0  0  0  0  0  0  0  0
   -3.4635    3.4009    0.0000 H   0  0  0  0  0  0  0  0  0  0  0  0
    5.2500    1.2990    0.0000 H   0  0  0  0  0  0  0  0  0  0  0  0
  1  2  1  0
  3  2  1  0
  2  4  1  0
  2  5  1  0
  6  3  2  0
  3  7  1  0
  8  6  1  0
  6  9  1  0
  7 10  2  0
  7 11  1  0
 12  8  1  0
 13  8  2  0
 10 13  1  0
 10 14  1  0
 15 12  1  0
 12 16  1  0
 12 17  1  0
 13 18  1  0
 18 19  1  0
 20 18  1  0
 18 21  1  0
 19 22  1  0
 19 23  1  0
 19 24  1  0
 25 20  1  0
 20 26  1  0
 20 27  1  0
 22 25  1  0
 22 28  1  0
 22 29  1  0
 25 30  1  0
 25 31  1  0
  1 32  1  0
M  END
>  <SMILES>  (2) 
OCc1ccc(C2CCCC2)c(C(F)(F)F)c1

>  <Molecular Weight>  (2) 
244.3

>  <Substrate_ID>  (2) 
MOL0051

>  <Substrate>  (2) 


>  <Substrate_SMILES>  (2) 
O=C(O)CC1CCc2c1[nH]c1ccc(OCc3ccc(C4CCCC4)c(C(F)(F)F)c3)cc21

>  <Reaction>  (2) 
O-dealkylation_(aromatic)

>  <Score>  (2) 
0.4962

>  <Reaction_Score>  (2) 
0.4803

>  <Bond_Score>  (2) 
0.5126

>  <Rank>  (2) 
1

>  <Subtype>  (2) 
REACTION

>  <Subtype_Scores>  (2) 
[REACTION] SOM_score: 0.5126, Reaction_score: 0.4803, Score: 0.4962


$$$$

     RDKit          2D

 60 64  0  0  0  0  0  0  0  0999 V2000
   -2.8823   11.7175    0.0000 C   0  0  0  0  0  0  0  0  0 18  0  0
   -3.1942   13.1847    0.0000 C   0  0  0  0  0  0  0  0  0 14  0  0
   -3.8043   14.5551    0.0000 O   0  0  0  0  0  0  0  0  0 34  0  0
   -1.8951   13.9347    0.0000 C   0  0  0  0  0  0  0  0  0 15  0  0
   -1.3905   11.5607    0.0000 C   0  0  0  0  0  0  0  0  0 31  0  0
   -4.3741   11.5607    0.0000 H   0  0  0  0  0  0  0  0  0  0  0  0
   -3.1763   10.5386    0.0000 H   0  0  0  0  0  0  0  0  0  0  0  0
   -1.7024   10.0935    0.0000 C   0  0  0  0  0  0  0  0  0 25  0  0
   -0.7804   12.9310    0.0000 C   0  0  0  0  0  0  0  0  0 19  0  0
   -0.1978   11.3289    0.0000 H   0  0  0  0  0  0  0  0  0  0  0  0
   -3.1290    9.6300    0.0000 C   0  0  0  0  0  0  0  0  0 10  0  0
   -0.5877    9.0898    0.0000 C   0  0  0  0  0  0  0  0  0 26  0  0
    0.5186   12.1810    0.0000 H   0  0  0  0  0  0  0  0  0  0  0  0
    0.1013   14.1446    0.0000 H   0  0  0  0  0  0  0  0  0  0  0  0
   -3.4408    8.1628    0.0000 C   0  0  0  0  0  0  0  0  0  8  0  0
   -4.2437   10.6337    0.0000 H   0  0  0  0  0  0  0  0  0  0  0  0
    0.8389    9.5533    0.0000 C   0  0  0  0  0  0  0  0  0 33  0  0
   -0.8995    7.6226    0.0000 C   0  0  0  0  0  0  0  0  0 11  0  0
   -2.3261    7.1591    0.0000 C   0  0  0  0  0  0  0  0  0 23  0  0
   -4.8674    7.6992    0.0000 H   0  0  0  0  0  0  0  0  0  0  0  0
    2.2655   10.0169    0.0000 F   0  0  0  0  0  0  0  0  0  1  0  0
    1.3024    8.1267    0.0000 F   0  0  0  0  0  0  0  0  0  2  0  0
    0.6071   10.7460    0.0000 F   0  0  0  0  0  0  0  0  0  3  0  0
    0.2152    6.6189    0.0000 H   0  0  0  0  0  0  0  0  0  0  0  0
   -2.6380    5.6918    0.0000 C   0  0  0  0  0  0  0  0  0 16  0  0
   -2.9499    4.2246    0.0000 O   0  0  0  0  0  0  0  0  0  6  0  0
   -1.1708    5.3800    0.0000 H   0  0  0  0  0  0  0  0  0  0  0  0
   -4.1052    6.0037    0.0000 H   0  0  0  0  0  0  0  0  0  0  0  0
   -1.8351    3.2209    0.0000 C   0  0  0  0  0  0  0  0  0 24  0  0
   -0.4086    3.6844    0.0000 C   0  0  0  0  0  0  0  0  0  9  0  0
   -2.1470    1.7537    0.0000 C   0  0  0  0  0  0  0  0  0 13  0  0
    0.7062    2.6807    0.0000 C   0  0  0  0  0  0  0  0  0 12  0  0
   -0.0967    5.1517    0.0000 H   0  0  0  0  0  0  0  0  0  0  0  0
   -1.0323    0.7500    0.0000 C   0  0  0  0  0  0  0  0  0 30  0  0
   -3.5736    1.2902    0.0000 H   0  0  0  0  0  0  0  0  0  0  0  0
    0.3943    1.2135    0.0000 C   0  0  0  0  0  0  0  0  0 29  0  0
    2.1328    3.1443    0.0000 H   0  0  0  0  0  0  0  0  0  0  0  0
   -1.0323   -0.7500    0.0000 C   0  0  0  0  0  0  0  0  0 28  0  0
    1.2760    0.0000    0.0000 N   0  0  0  0  0  0  0  0  0  7  0  0
    0.3943   -1.2135    0.0000 C   0  0  0  0  0  0  0  0  0 27  0  0
   -1.9140   -1.9635    0.0000 C   0  0  0  0  0  0  0  0  0 17  0  0
    2.7760    0.0000    0.0000 H   0  0  0  0  0  0  0  0  0  0  0  0
    0.3943   -2.7135    0.0000 C   0  0  0  0  0  0  0  0  0 32  0  0
   -1.0323   -3.1771    0.0000 C   0  0  0  0  0  0  0  0  0 20  0  0
   -3.0287   -0.9598    0.0000 H   0  0  0  0  0  0  0  0  0  0  0  0
   -3.0287   -2.9672    0.0000 H   0  0  0  0  0  0  0  0  0  0  0  0
    0.7062   -4.1807    0.0000 C   0  0  0  0  0  0  0  0  0 21  0  0
    1.8861   -2.5567    0.0000 H   0  0  0  0  0  0  0  0  0  0  0  0
   -2.3313   -3.9271    0.0000 H   0  0  0  0  0  0  0  0  0  0  0  0
   -0.7992   -3.9394    0.0000 H   0  0  0  0  0  0  0  0  0  0  0  0
    1.0180   -5.6480    0.0000 C   0  0  0  0  0  0  0  0  0 22  0  0
   -0.0476   -4.4403    0.0000 H   0  0  0  0  0  0  0  0  0  0  0  0
    2.1734   -3.8689    0.0000 H   0  0  0  0  0  0  0  0  0  0  0  0
   -0.0967   -6.6517    0.0000 O   0  0  0  0  0  0  0  0  0  4  0  0
    2.4446   -6.1115    0.0000 O   0  0  0  0  0  0  0  0  0  5  0  0
    2.7565   -7.5787    0.0000 H   0  0  0  0  0  0  0  0  0  0  0  0
   -4.6208   12.7212    0.0000 H   0  0  0  0  0  0  0  0  0  0  0  0
   -0.7804   14.9384    0.0000 H   0  0  0  0  0  0  0  0  0  0  0  0
   -2.7768   15.1483    0.0000 H   0  0  0  0  0  0  0  0  0  0  0  0
   -5.2961   14.7118    0.0000 H   0  0  0  0  0  0  0  0  0  0  0  0
  1  2  1  0
  2  3  1  0
  2  4  1  0
  5  1  1  0
  1  6  1  0
  1  7  1  0
  8  5  1  0
  9  5  1  0
  5 10  1  0
 11  8  2  0
  8 12  1  0
  4  9  1  0
  9 13  1  0
  9 14  1  0
 15 11  1  0
 11 16  1  0
 17 12  1  0
 12 18  2  0
 19 15  2  0
 15 20  1  0
 21 17  1  0
 17 22  1  0
 17 23  1  0
 18 19  1  0
 18 24  1  0
 19 25  1  0
 25 26  1  0
 25 27  1  0
 25 28  1  0
 26 29  1  0
 29 30  2  0
 31 29  1  0
 30 32  1  0
 30 33  1  0
 34 31  2  0
 31 35  1  0
 32 36  2  0
 32 37  1  0
 38 34  1  0
 34 36  1  0
 36 39  1  0
 40 38  2  0
 38 41  1  0
 39 40  1  0
 39 42  1  0
 43 40  1  0
 41 44  1  0
 41 45  1  0
 41 46  1  0
 44 43  1  0
 43 47  1  0
 43 48  1  6
 44 49  1  0
 44 50  1  0
 47 51  1  0
 47 52  1  0
 47 53  1  0
 51 54  2  0
 51 55  1  0
 55 56  1  0
  2 57  1  0
  4 58  1  0
  4 59  1  0
  3 60  1  0
M  END
>  <SMILES>  (3) 
O=C(O)CC1CCc2c1[nH]c1ccc(OCc3ccc(C4CCC(O)C4)c(C(F)(F)F)c3)cc21

>  <Molecular Weight>  (3) 
473.5

>  <Substrate_ID>  (3) 
MOL0051

>  <Substrate>  (3) 


>  <Substrate_SMILES>  (3) 
O=C(O)CC1CCc2c1[nH]c1ccc(OCc3ccc(C4CCCC4)c(C(F)(F)F)c3)cc21

>  <Reaction>  (3) 
aliphatic_hydroxylation_(sec_carbon_in_a_ringA),aliphatic hydroxylation

>  <Score>  (3) 
0.4572

>  <Reaction_Score>  (3) 
0.4657

>  <Bond_Score>  (3) 
0.4489

>  <Rank>  (3) 
2

>  <Subtype>  (3) 
REACTION

>  <Subtype_Scores>  (3) 
[REACTION] SOM_score: 0.4489, Reaction_score: 0.4657, Score: 0.4572


$$$$

     RDKit          2D

 60 64  0  0  0  0  0  0  0  0999 V2000
    0.3943    1.2135    0.0000 C   0  0  0  0  0  0  0  0  0 28  0  0
    1.2760    0.0000    0.0000 C   0  0  0  0  0  0  0  0  0 17  0  0
    2.3907    1.0037    0.0000 O   0  0  0  0  0  0  0  0  0 34  0  0
    0.3943   -1.2135    0.0000 C   0  0  0  0  0  0  0  0  0 20  0  0
   -1.0323    0.7500    0.0000 C   0  0  0  0  0  0  0  0  0 27  0  0
    0.3943    2.7135    0.0000 C   0  0  0  0  0  0  0  0  0 30  0  0
   -1.9140    1.9635    0.0000 N   0  0  0  0  0  0  0  0  0  7  0  0
   -1.0323   -0.7500    0.0000 C   0  0  0  0  0  0  0  0  0 32  0  0
    1.5090    3.7172    0.0000 C   0  0  0  0  0  0  0  0  0 13  0  0
   -1.0323    3.1771    0.0000 C   0  0  0  0  0  0  0  0  0 29  0  0
   -3.4140    1.9635    0.0000 H   0  0  0  0  0  0  0  0  0  0  0  0
   -1.3442   -2.2172    0.0000 C   0  0  0  0  0  0  0  0  0 21  0  0
   -2.5241   -0.5932    0.0000 H   0  0  0  0  0  0  0  0  0  0  0  0
    1.1971    5.1844    0.0000 C   0  0  0  0  0  0  0  0  0 24  0  0
    2.9356    3.2537    0.0000 H   0  0  0  0  0  0  0  0  0  0  0  0
   -1.3442    4.6443    0.0000 C   0  0  0  0  0  0  0  0  0 12  0  0
   -1.6560   -3.6844    0.0000 C   0  0  0  0  0  0  0  0  0 22  0  0
   -0.5904   -2.4768    0.0000 H   0  0  0  0  0  0  0  0  0  0  0  0
   -2.8114   -1.9054    0.0000 H   0  0  0  0  0  0  0  0  0  0  0  0
    2.3119    6.1881    0.0000 O   0  0  0  0  0  0  0  0  0  6  0  0
   -0.2294    5.6480    0.0000 C   0  0  0  0  0  0  0  0  0  9  0  0
   -2.7707    5.1078    0.0000 H   0  0  0  0  0  0  0  0  0  0  0  0
   -3.0826   -4.1480    0.0000 O   0  0  0  0  0  0  0  0  0  4  0  0
   -0.5413   -4.6881    0.0000 O   0  0  0  0  0  0  0  0  0  5  0  0
    2.0000    7.6554    0.0000 C   0  0  0  0  0  0  0  0  0 16  0  0
   -0.5413    7.1152    0.0000 H   0  0  0  0  0  0  0  0  0  0  0  0
   -0.8532   -6.1554    0.0000 H   0  0  0  0  0  0  0  0  0  0  0  0
    1.6881    9.1226    0.0000 C   0  0  0  0  0  0  0  0  0 23  0  0
    0.5328    7.3435    0.0000 H   0  0  0  0  0  0  0  0  0  0  0  0
    3.4672    7.9672    0.0000 H   0  0  0  0  0  0  0  0  0  0  0  0
    2.8028   10.1263    0.0000 C   0  0  0  0  0  0  0  0  0 11  0  0
    0.2615    9.5861    0.0000 C   0  0  0  0  0  0  0  0  0  8  0  0
    2.4910   11.5935    0.0000 C   0  0  0  0  0  0  0  0  0 26  0  0
    4.2294    9.6628    0.0000 H   0  0  0  0  0  0  0  0  0  0  0  0
   -0.0503   11.0533    0.0000 C   0  0  0  0  0  0  0  0  0 10  0  0
   -0.8532    8.5824    0.0000 H   0  0  0  0  0  0  0  0  0  0  0  0
    3.6057   12.5972    0.0000 C   0  0  0  0  0  0  0  0  0 33  0  0
    1.0644   12.0570    0.0000 C   0  0  0  0  0  0  0  0  0 25  0  0
   -1.4769   11.5169    0.0000 H   0  0  0  0  0  0  0  0  0  0  0  0
    4.7204   13.6009    0.0000 F   0  0  0  0  0  0  0  0  0  1  0  0
    4.6094   11.4825    0.0000 F   0  0  0  0  0  0  0  0  0  2  0  0
    2.9088   13.5925    0.0000 F   0  0  0  0  0  0  0  0  0  3  0  0
    0.7525   13.5242    0.0000 C   0  0  0  0  0  0  0  0  0 31  0  0
    0.7525   15.0242    0.0000 C   0  0  0  0  0  0  0  0  0 18  0  0
   -0.6741   13.0607    0.0000 C   0  0  0  0  0  0  0  0  0 19  0  0
    1.9364   13.7976    0.0000 H   0  0  0  0  0  0  0  0  0  0  0  0
   -0.6741   15.4878    0.0000 C   0  0  0  0  0  0  0  0  0 14  0  0
    2.2443   14.8675    0.0000 H   0  0  0  0  0  0  0  0  0  0  0  0
    1.0644   16.4915    0.0000 H   0  0  0  0  0  0  0  0  0  0  0  0
   -1.5557   14.2742    0.0000 C   0  0  0  0  0  0  0  0  0 15  0  0
   -1.9731   12.3107    0.0000 H   0  0  0  0  0  0  0  0  0  0  0  0
   -0.4631   11.8642    0.0000 H   0  0  0  0  0  0  0  0  0  0  0  0
   -0.0640   16.8581    0.0000 H   0  0  0  0  0  0  0  0  0  0  0  0
   -1.9731   16.2378    0.0000 H   0  0  0  0  0  0  0  0  0  0  0  0
   -2.6705   15.2779    0.0000 H   0  0  0  0  0  0  0  0  0  0  0  0
   -2.6705   13.2705    0.0000 H   0  0  0  0  0  0  0  0  0  0  0  0
    2.3907   -1.0037    0.0000 H   0  0  0  0  0  0  0  0  0  0  0  0
    1.6933   -1.9635    0.0000 H   0  0  0  0  0  0  0  0  0  0  0  0
    0.1613   -1.9759    0.0000 H   0  0  0  0  0  0  0  0  0  0  0  0
    3.8173    0.5402    0.0000 H   0  0  0  0  0  0  0  0  0  0  0  0
  1  2  1  0
  2  3  1  0
  2  4  1  0
  5  1  2  0
  1  6  1  0
  7  5  1  0
  8  5  1  0
  6  9  2  0
  6 10  1  0
 10  7  1  0
  7 11  1  0
  4  8  1  0
  8 12  1  0
  8 13  1  1
  9 14  1  0
  9 15  1  0
 16 10  2  0
 12 17  1  0
 12 18  1  0
 12 19  1  0
 20 14  1  0
 14 21  2  0
 21 16  1  0
 16 22  1  0
 17 23  2  0
 17 24  1  0
 25 20  1  0
 21 26  1  0
 24 27  1  0
 28 25  1  0
 25 29  1  0
 25 30  1  0
 31 28  2  0
 28 32  1  0
 33 31  1  0
 31 34  1  0
 32 35  2  0
 32 36  1  0
 37 33  1  0
 38 33  2  0
 35 38  1  0
 35 39  1  0
 40 37  1  0
 37 41  1  0
 37 42  1  0
 38 43  1  0
 43 44  1  0
 45 43  1  0
 43 46  1  0
 44 47  1  0
 44 48  1  0
 44 49  1  0
 50 45  1  0
 45 51  1  0
 45 52  1  0
 47 50  1  0
 47 53  1  0
 47 54  1  0
 50 55  1  0
 50 56  1  0
  2 57  1  0
  4 58  1  0
  4 59  1  0
  3 60  1  0
M  END
>  <SMILES>  (4) 
O=C(O)CC1CC(O)c2c1[nH]c1ccc(OCc3ccc(C4CCCC4)c(C(F)(F)F)c3)cc21

>  <Molecular Weight>  (4) 
473.5

>  <Substrate_ID>  (4) 
MOL0051

>  <Substrate>  (4) 


>  <Substrate_SMILES>  (4) 
O=C(O)CC1CCc2c1[nH]c1ccc(OCc3ccc(C4CCCC4)c(C(F)(F)F)c3)cc21

>  <Reaction>  (4) 
benzylic_hydroxylation_(c-CH2-CR),aliphatic hydroxylation

>  <Score>  (4) 
0.4023

>  <Reaction_Score>  (4) 
0.4173

>  <Bond_Score>  (4) 
0.3878

>  <Rank>  (4) 
3

>  <Subtype>  (4) 
REACTION

>  <Subtype_Scores>  (4) 
[REACTION] SOM_score: 0.3878, Reaction_score: 0.4173, Score: 0.4023


$$$$

     RDKit          2D

 60 64  0  0  0  0  0  0  0  0999 V2000
   -1.3905   11.5607    0.0000 C   0  0  0  0  0  0  0  0  0 31  0  0
    0.0361   11.0972    0.0000 O   0  0  0  0  0  0  0  0  0 34  0  0
    1.0314   11.7941    0.0000 H   0  0  0  0  0  0  0  0  0  0  0  0
   -1.7024   10.0935    0.0000 C   0  0  0  0  0  0  0  0  0 25  0  0
   -0.7804   12.9310    0.0000 C   0  0  0  0  0  0  0  0  0 18  0  0
   -2.8823   11.7175    0.0000 C   0  0  0  0  0  0  0  0  0 19  0  0
   -3.1290    9.6300    0.0000 C   0  0  0  0  0  0  0  0  0 10  0  0
   -0.5877    9.0898    0.0000 C   0  0  0  0  0  0  0  0  0 26  0  0
   -1.8951   13.9347    0.0000 C   0  0  0  0  0  0  0  0  0 14  0  0
    0.3380   12.4563    0.0000 H   0  0  0  0  0  0  0  0  0  0  0  0
    0.1013   14.1446    0.0000 H   0  0  0  0  0  0  0  0  0  0  0  0
   -3.1942   13.1847    0.0000 C   0  0  0  0  0  0  0  0  0 15  0  0
   -4.3741   11.5607    0.0000 H   0  0  0  0  0  0  0  0  0  0  0  0
   -3.1763   10.5386    0.0000 H   0  0  0  0  0  0  0  0  0  0  0  0
   -3.4408    8.1628    0.0000 C   0  0  0  0  0  0  0  0  0  8  0  0
   -4.2437   10.6337    0.0000 H   0  0  0  0  0  0  0  0  0  0  0  0
    0.8389    9.5533    0.0000 C   0  0  0  0  0  0  0  0  0 33  0  0
   -0.8995    7.6226    0.0000 C   0  0  0  0  0  0  0  0  0 11  0  0
   -0.7804   14.9384    0.0000 H   0  0  0  0  0  0  0  0  0  0  0  0
   -2.7768   15.1483    0.0000 H   0  0  0  0  0  0  0  0  0  0  0  0
   -3.8043   14.5551    0.0000 H   0  0  0  0  0  0  0  0  0  0  0  0
   -4.6208   12.7212    0.0000 H   0  0  0  0  0  0  0  0  0  0  0  0
   -2.3261    7.1591    0.0000 C   0  0  0  0  0  0  0  0  0 23  0  0
   -4.8674    7.6992    0.0000 H   0  0  0  0  0  0  0  0  0  0  0  0
    2.2655   10.0169    0.0000 F   0  0  0  0  0  0  0  0  0  1  0  0
    1.3024    8.1267    0.0000 F   0  0  0  0  0  0  0  0  0  2  0  0
    0.7703   10.5351    0.0000 F   0  0  0  0  0  0  0  0  0  3  0  0
    0.2152    6.6189    0.0000 H   0  0  0  0  0  0  0  0  0  0  0  0
   -2.6380    5.6918    0.0000 C   0  0  0  0  0  0  0  0  0 16  0  0
   -2.9499    4.2246    0.0000 O   0  0  0  0  0  0  0  0  0  6  0  0
   -1.1708    5.3800    0.0000 H   0  0  0  0  0  0  0  0  0  0  0  0
   -4.1052    6.0037    0.0000 H   0  0  0  0  0  0  0  0  0  0  0  0
   -1.8351    3.2209    0.0000 C   0  0  0  0  0  0  0  0  0 24  0  0
   -0.4086    3.6844    0.0000 C   0  0  0  0  0  0  0  0  0  9  0  0
   -2.1470    1.7537    0.0000 C   0  0  0  0  0  0  0  0  0 13  0  0
    0.7062    2.6807    0.0000 C   0  0  0  0  0  0  0  0  0 12  0  0
   -0.0967    5.1517    0.0000 H   0  0  0  0  0  0  0  0  0  0  0  0
   -1.0323    0.7500    0.0000 C   0  0  0  0  0  0  0  0  0 30  0  0
   -3.5736    1.2902    0.0000 H   0  0  0  0  0  0  0  0  0  0  0  0
    0.3943    1.2135    0.0000 C   0  0  0  0  0  0  0  0  0 29  0  0
    2.1328    3.1443    0.0000 H   0  0  0  0  0  0  0  0  0  0  0  0
   -1.0323   -0.7500    0.0000 C   0  0  0  0  0  0  0  0  0 28  0  0
    1.2760    0.0000    0.0000 N   0  0  0  0  0  0  0  0  0  7  0  0
    0.3943   -1.2135    0.0000 C   0  0  0  0  0  0  0  0  0 27  0  0
   -1.9140   -1.9635    0.0000 C   0  0  0  0  0  0  0  0  0 17  0  0
    2.7760    0.0000    0.0000 H   0  0  0  0  0  0  0  0  0  0  0  0
    0.3943   -2.7135    0.0000 C   0  0  0  0  0  0  0  0  0 32  0  0
   -1.0323   -3.1771    0.0000 C   0  0  0  0  0  0  0  0  0 20  0  0
   -3.0287   -0.9598    0.0000 H   0  0  0  0  0  0  0  0  0  0  0  0
   -3.0287   -2.9672    0.0000 H   0  0  0  0  0  0  0  0  0  0  0  0
    0.7062   -4.1807    0.0000 C   0  0  0  0  0  0  0  0  0 21  0  0
    1.8861   -2.5567    0.0000 H   0  0  0  0  0  0  0  0  0  0  0  0
   -2.3313   -3.9271    0.0000 H   0  0  0  0  0  0  0  0  0  0  0  0
   -0.7992   -3.9394    0.0000 H   0  0  0  0  0  0  0  0  0  0  0  0
    1.0180   -5.6480    0.0000 C   0  0  0  0  0  0  0  0  0 22  0  0
   -0.0476   -4.4403    0.0000 H   0  0  0  0  0  0  0  0  0  0  0  0
    2.1734   -3.8689    0.0000 H   0  0  0  0  0  0  0  0  0  0  0  0
   -0.0967   -6.6517    0.0000 O   0  0  0  0  0  0  0  0  0  4  0  0
    2.4446   -6.1115    0.0000 O   0  0  0  0  0  0  0  0  0  5  0  0
    2.7565   -7.5787    0.0000 H   0  0  0  0  0  0  0  0  0  0  0  0
  1  2  1  0
  2  3  1  0
  4  1  1  0
  1  5  1  0
  6  1  1  0
  7  4  2  0
  4  8  1  0
  5  9  1  0
  5 10  1  0
  5 11  1  0
 12  6  1  0
  6 13  1  0
  6 14  1  0
 15  7  1  0
  7 16  1  0
 17  8  1  0
  8 18  2  0
  9 12  1  0
  9 19  1  0
  9 20  1  0
 12 21  1  0
 12 22  1  0
 23 15  2  0
 15 24  1  0
 25 17  1  0
 17 26  1  0
 17 27  1  0
 18 23  1  0
 18 28  1  0
 23 29  1  0
 29 30  1  0
 29 31  1  0
 29 32  1  0
 30 33  1  0
 33 34  2  0
 35 33  1  0
 34 36  1  0
 34 37  1  0
 38 35  2  0
 35 39  1  0
 36 40  2  0
 36 41  1  0
 42 38  1  0
 38 40  1  0
 40 43  1  0
 44 42  2  0
 42 45  1  0
 43 44  1  0
 43 46  1  0
 47 44  1  0
 45 48  1  0
 45 49  1  0
 45 50  1  0
 48 47  1  0
 47 51  1  0
 47 52  1  6
 48 53  1  0
 48 54  1  0
 51 55  1  0
 51 56  1  0
 51 57  1  0
 55 58  2  0
 55 59  1  0
 59 60  1  0
M  END
>  <SMILES>  (5) 
O=C(O)CC1CCc2c1[nH]c1ccc(OCc3ccc(C4(O)CCCC4)c(C(F)(F)F)c3)cc21

>  <Molecular Weight>  (5) 
473.5

>  <Substrate_ID>  (5) 
MOL0051

>  <Substrate>  (5) 


>  <Substrate_SMILES>  (5) 
O=C(O)CC1CCc2c1[nH]c1ccc(OCc3ccc(C4CCCC4)c(C(F)(F)F)c3)cc21

>  <Reaction>  (5) 
aliphatic hydroxylation

>  <Score>  (5) 
0.3348

>  <Reaction_Score>  (5) 
0.374

>  <Bond_Score>  (5) 
0.2996

>  <Rank>  (5) 
4

>  <Subtype>  (5) 
REACTION

>  <Subtype_Scores>  (5) 
[REACTION] SOM_score: 0.2996, Reaction_score: 0.3740, Score: 0.3348


$$$$

     RDKit          2D

 60 64  0  0  0  0  0  0  0  0999 V2000
   -0.7804   12.9310    0.0000 C   0  0  0  0  0  0  0  0  0 18  0  0
    0.5186   12.1810    0.0000 O   0  0  0  0  0  0  0  0  0 34  0  0
    1.8177   12.9310    0.0000 H   0  0  0  0  0  0  0  0  0  0  0  0
   -1.3905   11.5607    0.0000 C   0  0  0  0  0  0  0  0  0 31  0  0
   -1.8951   13.9347    0.0000 C   0  0  0  0  0  0  0  0  0 14  0  0
    0.1013   14.1446    0.0000 H   0  0  0  0  0  0  0  0  0  0  0  0
   -1.7024   10.0935    0.0000 C   0  0  0  0  0  0  0  0  0 25  0  0
   -2.8823   11.7175    0.0000 C   0  0  0  0  0  0  0  0  0 19  0  0
   -0.1978   11.3289    0.0000 H   0  0  0  0  0  0  0  0  0  0  0  0
   -3.1942   13.1847    0.0000 C   0  0  0  0  0  0  0  0  0 15  0  0
   -0.7804   14.9384    0.0000 H   0  0  0  0  0  0  0  0  0  0  0  0
   -2.7768   15.1483    0.0000 H   0  0  0  0  0  0  0  0  0  0  0  0
   -3.1290    9.6300    0.0000 C   0  0  0  0  0  0  0  0  0 10  0  0
   -0.5877    9.0898    0.0000 C   0  0  0  0  0  0  0  0  0 26  0  0
   -4.3741   11.5607    0.0000 H   0  0  0  0  0  0  0  0  0  0  0  0
   -3.1763   10.5386    0.0000 H   0  0  0  0  0  0  0  0  0  0  0  0
   -3.8043   14.5551    0.0000 H   0  0  0  0  0  0  0  0  0  0  0  0
   -4.6208   12.7212    0.0000 H   0  0  0  0  0  0  0  0  0  0  0  0
   -3.4408    8.1628    0.0000 C   0  0  0  0  0  0  0  0  0  8  0  0
   -4.2437   10.6337    0.0000 H   0  0  0  0  0  0  0  0  0  0  0  0
    0.8389    9.5533    0.0000 C   0  0  0  0  0  0  0  0  0 33  0  0
   -0.8995    7.6226    0.0000 C   0  0  0  0  0  0  0  0  0 11  0  0
   -2.3261    7.1591    0.0000 C   0  0  0  0  0  0  0  0  0 23  0  0
   -4.8674    7.6992    0.0000 H   0  0  0  0  0  0  0  0  0  0  0  0
    2.2655   10.0169    0.0000 F   0  0  0  0  0  0  0  0  0  1  0  0
    1.3024    8.1267    0.0000 F   0  0  0  0  0  0  0  0  0  2  0  0
    0.6071   10.7460    0.0000 F   0  0  0  0  0  0  0  0  0  3  0  0
    0.2152    6.6189    0.0000 H   0  0  0  0  0  0  0  0  0  0  0  0
   -2.6380    5.6918    0.0000 C   0  0  0  0  0  0  0  0  0 16  0  0
   -2.9499    4.2246    0.0000 O   0  0  0  0  0  0  0  0  0  6  0  0
   -1.1708    5.3800    0.0000 H   0  0  0  0  0  0  0  0  0  0  0  0
   -4.1052    6.0037    0.0000 H   0  0  0  0  0  0  0  0  0  0  0  0
   -1.8351    3.2209    0.0000 C   0  0  0  0  0  0  0  0  0 24  0  0
   -0.4086    3.6844    0.0000 C   0  0  0  0  0  0  0  0  0  9  0  0
   -2.1470    1.7537    0.0000 C   0  0  0  0  0  0  0  0  0 13  0  0
    0.7062    2.6807    0.0000 C   0  0  0  0  0  0  0  0  0 12  0  0
   -0.0967    5.1517    0.0000 H   0  0  0  0  0  0  0  0  0  0  0  0
   -1.0323    0.7500    0.0000 C   0  0  0  0  0  0  0  0  0 30  0  0
   -3.5736    1.2902    0.0000 H   0  0  0  0  0  0  0  0  0  0  0  0
    0.3943    1.2135    0.0000 C   0  0  0  0  0  0  0  0  0 29  0  0
    2.1328    3.1443    0.0000 H   0  0  0  0  0  0  0  0  0  0  0  0
   -1.0323   -0.7500    0.0000 C   0  0  0  0  0  0  0  0  0 28  0  0
    1.2760    0.0000    0.0000 N   0  0  0  0  0  0  0  0  0  7  0  0
    0.3943   -1.2135    0.0000 C   0  0  0  0  0  0  0  0  0 27  0  0
   -1.9140   -1.9635    0.0000 C   0  0  0  0  0  0  0  0  0 17  0  0
    2.7760    0.0000    0.0000 H   0  0  0  0  0  0  0  0  0  0  0  0
    0.3943   -2.7135    0.0000 C   0  0  0  0  0  0  0  0  0 32  0  0
   -1.0323   -3.1771    0.0000 C   0  0  0  0  0  0  0  0  0 20  0  0
   -3.0287   -0.9598    0.0000 H   0  0  0  0  0  0  0  0  0  0  0  0
   -3.0287   -2.9672    0.0000 H   0  0  0  0  0  0  0  0  0  0  0  0
    0.7062   -4.1807    0.0000 C   0  0  0  0  0  0  0  0  0 21  0  0
    1.8861   -2.5567    0.0000 H   0  0  0  0  0  0  0  0  0  0  0  0
   -2.3313   -3.9271    0.0000 H   0  0  0  0  0  0  0  0  0  0  0  0
   -0.7992   -3.9394    0.0000 H   0  0  0  0  0  0  0  0  0  0  0  0
    1.0180   -5.6480    0.0000 C   0  0  0  0  0  0  0  0  0 22  0  0
   -0.0476   -4.4403    0.0000 H   0  0  0  0  0  0  0  0  0  0  0  0
    2.1734   -3.8689    0.0000 H   0  0  0  0  0  0  0  0  0  0  0  0
   -0.0967   -6.6517    0.0000 O   0  0  0  0  0  0  0  0  0  4  0  0
    2.4446   -6.1115    0.0000 O   0  0  0  0  0  0  0  0  0  5  0  0
    2.7565   -7.5787    0.0000 H   0  0  0  0  0  0  0  0  0  0  0  0
  1  2  1  0
  2  3  1  0
  4  1  1  0
  1  5  1  0
  1  6  1  0
  7  4  1  0
  8  4  1  0
  4  9  1  0
  5 10  1  0
  5 11  1  0
  5 12  1  0
 13  7  2  0
  7 14  1  0
 10  8  1  0
  8 15  1  0
  8 16  1  0
 10 17  1  0
 10 18  1  0
 19 13  1  0
 13 20  1  0
 21 14  1  0
 14 22  2  0
 23 19  2  0
 19 24  1  0
 25 21  1  0
 21 26  1  0
 21 27  1  0
 22 23  1  0
 22 28  1  0
 23 29  1  0
 29 30  1  0
 29 31  1  0
 29 32  1  0
 30 33  1  0
 33 34  2  0
 35 33  1  0
 34 36  1  0
 34 37  1  0
 38 35  2  0
 35 39  1  0
 36 40  2  0
 36 41  1  0
 42 38  1  0
 38 40  1  0
 40 43  1  0
 44 42  2  0
 42 45  1  0
 43 44  1  0
 43 46  1  0
 47 44  1  0
 45 48  1  0
 45 49  1  0
 45 50  1  0
 48 47  1  0
 47 51  1  0
 47 52  1  6
 48 53  1  0
 48 54  1  0
 51 55  1  0
 51 56  1  0
 51 57  1  0
 55 58  2  0
 55 59  1  0
 59 60  1  0
M  END
>  <SMILES>  (6) 
O=C(O)CC1CCc2c1[nH]c1ccc(OCc3ccc(C4CCCC4O)c(C(F)(F)F)c3)cc21

>  <Molecular Weight>  (6) 
473.5

>  <Substrate_ID>  (6) 
MOL0051

>  <Substrate>  (6) 


>  <Substrate_SMILES>  (6) 
O=C(O)CC1CCc2c1[nH]c1ccc(OCc3ccc(C4CCCC4)c(C(F)(F)F)c3)cc21

>  <Reaction>  (6) 
aliphatic hydroxylation

>  <Score>  (6) 
0.1218

>  <Reaction_Score>  (6) 
0.1139

>  <Bond_Score>  (6) 
0.1303

>  <Rank>  (6) 
5

>  <Subtype>  (6) 
REACTION

>  <Subtype_Scores>  (6) 
[REACTION] SOM_score: 0.1265, Reaction_score: 0.1092, Score: 0.1175


$$$$
