
     RDKit          2D

  9  8  0  0  0  0  0  0  0  0999 V2000
    0.0000    0.0000    0.0000 C   0  0  0  0  0  0  0  0  0  3  0  0
   -1.5000    0.0000    0.0000 O   0  0  0  0  0  0  0  0  0  5  0  0
   -2.2500   -1.2990    0.0000 H   0  0  0  0  0  0  0  0  0  0  0  0
    0.0000    1.5000    0.0000 Cl  0  0  0  0  0  0  0  0  0  1  0  0
    1.5000    0.0000    0.0000 C   0  0  0  0  0  0  0  0  0  4  0  0
   -0.0000   -1.5000    0.0000 H   0  0  0  0  0  0  0  0  0  0  0  0
    3.0000    0.0000    0.0000 Cl  0  0  0  0  0  0  0  0  0  2  0  0
    1.5000   -1.5000    0.0000 H   0  0  0  0  0  0  0  0  0  0  0  0
    1.5000    1.5000    0.0000 H   0  0  0  0  0  0  0  0  0  0  0  0
  1  2  1  0
  2  3  1  0
  4  1  1  0
  1  5  1  0
  1  6  1  0
  5  7  1  0
  5  8  1  0
  5  9  1  0
M  END
>  <SMILES>  (1) 
OC(Cl)CCl

>  <Molecular Weight>  (1) 
115.0

>  <Substrate_ID>  (1) 
MOL0100

>  <Substrate>  (1) 


>  <Substrate_SMILES>  (1) 
ClCCCl

>  <Reaction>  (1) 
aliphatic hydroxylation

>  <Score>  (1) 
0.2443

>  <Reaction_Score>  (1) 
0.0977

>  <Bond_Score>  (1) 
0.6104

>  <Rank>  (1) 
1

>  <Subtype>  (1) 
REACTION

>  <Subtype_Scores>  (1) 
[REACTION] SOM_score: 0.6104, Reaction_score: 0.0977, Score: 0.2443


$$$$

     RDKit          2D

  9  8  0  0  0  0  0  0  0  0999 V2000
    0.0000    0.0000    0.0000 C   0  0  0  0  0  0  0  0  0  3  0  0
   -1.5000    0.0000    0.0000 O   0  0  0  0  0  0  0  0  0  5  0  0
    1.5000    0.0000    0.0000 C   0  0  0  0  0  0  0  0  0  4  0  0
    0.0000    1.5000    0.0000 H   0  0  0  0  0  0  0  0  0  0  0  0
   -0.0000   -1.5000    0.0000 H   0  0  0  0  0  0  0  0  0  0  0  0
    3.0000    0.0000    0.0000 Cl  0  0  0  0  0  0  0  0  0  2  0  0
    1.5000   -1.5000    0.0000 H   0  0  0  0  0  0  0  0  0  0  0  0
    1.5000    1.5000    0.0000 H   0  0  0  0  0  0  0  0  0  0  0  0
   -2.2500   -1.2990    0.0000 H   0  0  0  0  0  0  0  0  0  0  0  0
  1  2  1  0
  1  3  1  0
  1  4  1  0
  1  5  1  0
  3  6  1  0
  3  7  1  0
  3  8  1  0
  2  9  1  0
M  END
>  <SMILES>  (2) 
OCCCl

>  <Molecular Weight>  (2) 
80.5

>  <Substrate_ID>  (2) 
MOL0100

>  <Substrate>  (2) 


>  <Substrate_SMILES>  (2) 
ClCCCl

>  <Reaction>  (2) 
aliphatic_dehalogenation

>  <Score>  (2) 
0.1759

>  <Reaction_Score>  (2) 
0.0846

>  <Bond_Score>  (2) 
0.366

>  <Rank>  (2) 
2

>  <Subtype>  (2) 
REACTION

>  <Subtype_Scores>  (2) 
[REACTION] SOM_score: 0.3660, Reaction_score: 0.0846, Score: 0.1759


$$$$

     RDKit          2D

  7  6  0  0  0  0  0  0  0  0999 V2000
    0.0000    0.0000    0.0000 C   0  0  0  0  0  0  0  0  0  3  0  0
   -1.2990    0.7500    0.0000 O   0  0  0  0  0  0  0  0  0  5  0  0
    1.2990    0.7500    0.0000 C   0  0  0  0  0  0  0  0  0  4  0  0
   -0.0000   -1.5000    0.0000 H   0  0  0  0  0  0  0  0  0  0  0  0
    2.5981    1.5000    0.0000 Cl  0  0  0  0  0  0  0  0  0  2  0  0
    2.0490   -0.5490    0.0000 H   0  0  0  0  0  0  0  0  0  0  0  0
    0.5490    2.0490    0.0000 H   0  0  0  0  0  0  0  0  0  0  0  0
  1  2  2  0
  1  3  1  0
  1  4  1  0
  3  5  1  0
  3  6  1  0
  3  7  1  0
M  END
>  <SMILES>  (3) 
O=CCCl

>  <Molecular Weight>  (3) 
78.5

>  <Substrate_ID>  (3) 
MOL0100

>  <Substrate>  (3) 


>  <Substrate_SMILES>  (3) 
ClCCCl

>  <Reaction>  (3) 
oxidative dehalogenation alkyl

>  <Score>  (3) 
0.1759

>  <Reaction_Score>  (3) 
0.0846

>  <Bond_Score>  (3) 
0.366

>  <Rank>  (3) 
2

>  <Subtype>  (3) 
REACTION

>  <Subtype_Scores>  (3) 
[REACTION] SOM_score: 0.3660, Reaction_score: 0.0846, Score: 0.1759


$$$$
