
     RDKit          2D

 50 52  0  0  0  0  0  0  0  0999 V2000
   11.4336    1.1395    0.0000 N   0  0  0  0  0  0  0  0  0  7  0  0
   10.0633    1.7496    0.0000 C   0  0  0  0  0  0  0  0  0 19  0  0
   11.5904   -0.3522    0.0000 C   0  0  0  0  0  0  0  0  0 18  0  0
    8.6930    2.3597    0.0000 C   0  0  0  0  0  0  0  0  0 16  0  0
    9.4532    0.3793    0.0000 H   0  0  0  0  0  0  0  0  0  0  0  0
   10.6734    3.1200    0.0000 H   0  0  0  0  0  0  0  0  0  0  0  0
   11.7472   -1.8440    0.0000 C   0  0  0  0  0  0  0  0  0  9  0  0
   13.0822   -0.1955    0.0000 H   0  0  0  0  0  0  0  0  0  0  0  0
   10.0986   -0.5090    0.0000 H   0  0  0  0  0  0  0  0  0  0  0  0
    7.3226    2.9699    0.0000 N   0  0  0  0  0  0  0  0  0  4  0  0
    9.3031    3.7301    0.0000 H   0  0  0  0  0  0  0  0  0  0  0  0
    8.0829    0.9894    0.0000 H   0  0  0  0  0  0  0  0  0  0  0  0
   13.2390   -1.6872    0.0000 H   0  0  0  0  0  0  0  0  0  0  0  0
   10.2554   -2.0008    0.0000 H   0  0  0  0  0  0  0  0  0  0  0  0
   11.9040   -3.3358    0.0000 H   0  0  0  0  0  0  0  0  0  0  0  0
    6.1091    2.0882    0.0000 C   0  0  0  0  0  0  0  0  0 21  0  0
    7.3439    4.1847    0.0000 H   0  0  0  0  0  0  0  0  0  0  0  0
    4.7388    2.6983    0.0000 C   0  0  0  0  0  0  0  0  0 29  0  0
    6.2659    0.5964    0.0000 O   0  0  0  0  0  0  0  0  0  3  0  0
    4.4269    4.1655    0.0000 C   0  0  0  0  0  0  0  0  0 26  0  0
    3.4398    1.9483    0.0000 C   0  0  0  0  0  0  0  0  0 28  0  0
    2.9352    4.3223    0.0000 N   0  0  0  0  0  0  0  0  0  6  0  0
    5.4306    5.2802    0.0000 C   0  0  0  0  0  0  0  0  0 10  0  0
    3.2830    0.4565    0.0000 C   0  0  0  0  0  0  0  0  0 11  0  0
    2.3250    2.9520    0.0000 C   0  0  0  0  0  0  0  0  0 27  0  0
    2.1852    5.6213    0.0000 H   0  0  0  0  0  0  0  0  0  0  0  0
    6.4259    4.5834    0.0000 H   0  0  0  0  0  0  0  0  0  0  0  0
    4.3159    6.2839    0.0000 H   0  0  0  0  0  0  0  0  0  0  0  0
    6.4343    6.3949    0.0000 H   0  0  0  0  0  0  0  0  0  0  0  0
    4.7748    0.2997    0.0000 H   0  0  0  0  0  0  0  0  0  0  0  0
    1.7912    0.6133    0.0000 H   0  0  0  0  0  0  0  0  0  0  0  0
    3.1801   -0.5223    0.0000 H   0  0  0  0  0  0  0  0  0  0  0  0
    0.8578    2.6401    0.0000 C   0  0  0  0  0  0  0  0  0 12  0  0
    0.3943    1.2135    0.0000 C   0  0  0  0  0  0  0  0  0 22  0  0
   -0.1459    3.7548    0.0000 H   0  0  0  0  0  0  0  0  0  0  0  0
   -1.0323    0.7500    0.0000 C   0  0  0  0  0  0  0  0  0 25  0  0
    1.2760    0.0000    0.0000 C   0  0  0  0  0  0  0  0  0 20  0  0
   -1.0323   -0.7500    0.0000 C   0  0  0  0  0  0  0  0  0 24  0  0
   -2.3313    1.5000    0.0000 C   0  0  0  0  0  0  0  0  0 15  0  0
    2.2309   -0.2381    0.0000 O   0  0  0  0  0  0  0  0  0  2  0  0
    0.3943   -1.2135    0.0000 N   0  0  0  0  0  0  0  0  0  5  0  0
   -2.3313   -1.5000    0.0000 C   0  0  0  0  0  0  0  0  0 14  0  0
   -3.6304    0.7500    0.0000 C   0  0  0  0  0  0  0  0  0 23  0  0
   -2.3313    3.0000    0.0000 H   0  0  0  0  0  0  0  0  0  0  0  0
    0.8578   -2.6401    0.0000 H   0  0  0  0  0  0  0  0  0  0  0  0
   -3.6304   -0.7500    0.0000 C   0  0  0  0  0  0  0  0  0 13  0  0
   -2.3313   -3.0000    0.0000 H   0  0  0  0  0  0  0  0  0  0  0  0
   -4.9294    1.5000    0.0000 F   0  0  0  0  0  0  0  0  0  1  0  0
   -4.9294   -1.5000    0.0000 H   0  0  0  0  0  0  0  0  0  0  0  0
   12.6471    2.0212    0.0000 H   0  0  0  0  0  0  0  0  0  0  0  0
  2  1  1  0
  1  3  1  0
  4  2  1  0
  2  5  1  0
  2  6  1  0
  3  7  1  0
  3  8  1  0
  3  9  1  0
 10  4  1  0
  4 11  1  0
  4 12  1  0
  7 13  1  0
  7 14  1  0
  7 15  1  0
 16 10  1  0
 10 17  1  0
 18 16  1  0
 16 19  2  0
 20 18  2  0
 18 21  1  0
 22 20  1  0
 20 23  1  0
 21 24  1  0
 21 25  2  0
 25 22  1  0
 22 26  1  0
 23 27  1  0
 23 28  1  0
 23 29  1  0
 24 30  1  0
 24 31  1  0
 24 32  1  0
 33 25  1  0
 34 33  2  0
 33 35  1  0
 36 34  1  0
 34 37  1  0
 38 36  2  0
 36 39  1  0
 37 40  2  0
 37 41  1  0
 42 38  1  0
 41 38  1  0
 39 43  2  0
 39 44  1  0
 41 45  1  0
 46 42  2  0
 42 47  1  0
 48 43  1  0
 43 46  1  0
 46 49  1  0
  1 50  1  0
M  END
>  <SMILES>  (1) 
CCNCCNC(=O)c1c(C)[nH]c(C=C2C(=O)Nc3ccc(F)cc32)c1C

>  <Molecular Weight>  (1) 
370.4

>  <Substrate_ID>  (1) 
MOL0055

>  <Substrate>  (1) 


>  <Substrate_SMILES>  (1) 
CCN(CC)CCNC(=O)c1c(C)[nH]c(C=C2C(=O)Nc3ccc(F)cc32)c1C

>  <Reaction>  (1) 
N-dealkylation_(tertiaryN-CH2-alkyl)

>  <Score>  (1) 
0.8972

>  <Reaction_Score>  (1) 
0.8822

>  <Bond_Score>  (1) 
0.9125

>  <Rank>  (1) 
1

>  <Subtype>  (1) 
REACTION

>  <Subtype_Scores>  (1) 
[REACTION] SOM_score: 0.9125, Reaction_score: 0.8822, Score: 0.8972


$$$$

     RDKit          2D

 57 59  0  0  0  0  0  0  0  0999 V2000
    4.4269    4.1655    0.0000 C   0  0  0  0  0  0  0  0  0 26  0  0
    5.4306    5.2802    0.0000 C   0  0  0  0  0  0  0  0  0 10  0  0
    6.4343    6.3949    0.0000 O   0  0  0  0  0  0  0  0  0 30  0  0
    2.9352    4.3223    0.0000 N   0  0  0  0  0  0  0  0  0  6  0  0
    4.7388    2.6983    0.0000 C   0  0  0  0  0  0  0  0  0 29  0  0
    2.3250    2.9520    0.0000 C   0  0  0  0  0  0  0  0  0 27  0  0
    2.3491    5.7031    0.0000 H   0  0  0  0  0  0  0  0  0  0  0  0
    6.1091    2.0882    0.0000 C   0  0  0  0  0  0  0  0  0 21  0  0
    3.4398    1.9483    0.0000 C   0  0  0  0  0  0  0  0  0 28  0  0
    0.8578    2.6401    0.0000 C   0  0  0  0  0  0  0  0  0 12  0  0
    6.2659    0.5964    0.0000 O   0  0  0  0  0  0  0  0  0  3  0  0
    7.3226    2.9699    0.0000 N   0  0  0  0  0  0  0  0  0  4  0  0
    3.2830    0.4565    0.0000 C   0  0  0  0  0  0  0  0  0 11  0  0
   -0.1459    3.7548    0.0000 C   0  0  0  0  0  0  0  0  0 22  0  0
    0.3943    1.2135    0.0000 H   0  0  0  0  0  0  0  0  0  0  0  0
    8.6930    2.3597    0.0000 C   0  0  0  0  0  0  0  0  0 16  0  0
    7.3439    4.1847    0.0000 H   0  0  0  0  0  0  0  0  0  0  0  0
    4.7748    0.2997    0.0000 H   0  0  0  0  0  0  0  0  0  0  0  0
    1.7912    0.6133    0.0000 H   0  0  0  0  0  0  0  0  0  0  0  0
    3.1262   -1.0353    0.0000 H   0  0  0  0  0  0  0  0  0  0  0  0
   -1.6377    3.5980    0.0000 C   0  0  0  0  0  0  0  0  0 25  0  0
    0.1660    5.2220    0.0000 C   0  0  0  0  0  0  0  0  0 20  0  0
   10.0633    1.7496    0.0000 C   0  0  0  0  0  0  0  0  0 19  0  0
    8.0829    0.9894    0.0000 H   0  0  0  0  0  0  0  0  0  0  0  0
    9.3031    3.7301    0.0000 H   0  0  0  0  0  0  0  0  0  0  0  0
   -2.2478    4.9684    0.0000 C   0  0  0  0  0  0  0  0  0 24  0  0
   -2.5193    2.3845    0.0000 C   0  0  0  0  0  0  0  0  0 15  0  0
    1.4517    5.9946    0.0000 O   0  0  0  0  0  0  0  0  0  2  0  0
   -1.1330    5.9720    0.0000 N   0  0  0  0  0  0  0  0  0  5  0  0
   11.4336    1.1395    0.0000 N   0  0  0  0  0  0  0  0  0  7  0  0
   10.6734    3.1200    0.0000 H   0  0  0  0  0  0  0  0  0  0  0  0
    9.4532    0.3793    0.0000 H   0  0  0  0  0  0  0  0  0  0  0  0
   -3.7395    5.1251    0.0000 C   0  0  0  0  0  0  0  0  0 14  0  0
   -4.0111    2.5413    0.0000 C   0  0  0  0  0  0  0  0  0 23  0  0
   -1.9092    1.0142    0.0000 H   0  0  0  0  0  0  0  0  0  0  0  0
   -1.2898    7.4638    0.0000 H   0  0  0  0  0  0  0  0  0  0  0  0
   11.5904   -0.3522    0.0000 C   0  0  0  0  0  0  0  0  0 17  0  0
   12.6471    2.0212    0.0000 C   0  0  0  0  0  0  0  0  0 18  0  0
   -4.6212    3.9116    0.0000 C   0  0  0  0  0  0  0  0  0 13  0  0
   -4.3496    6.4955    0.0000 H   0  0  0  0  0  0  0  0  0  0  0  0
   -4.8928    1.3278    0.0000 F   0  0  0  0  0  0  0  0  0  1  0  0
   11.7472   -1.8440    0.0000 C   0  0  0  0  0  0  0  0  0  8  0  0
   13.0822   -0.1955    0.0000 H   0  0  0  0  0  0  0  0  0  0  0  0
   10.0986   -0.5090    0.0000 H   0  0  0  0  0  0  0  0  0  0  0  0
   13.8606    2.9029    0.0000 C   0  0  0  0  0  0  0  0  0  9  0  0
   13.5288    0.8077    0.0000 H   0  0  0  0  0  0  0  0  0  0  0  0
   11.7654    3.2347    0.0000 H   0  0  0  0  0  0  0  0  0  0  0  0
   -6.1130    4.0684    0.0000 H   0  0  0  0  0  0  0  0  0  0  0  0
   10.2554   -2.0008    0.0000 H   0  0  0  0  0  0  0  0  0  0  0  0
   13.2390   -1.6872    0.0000 H   0  0  0  0  0  0  0  0  0  0  0  0
   11.9040   -3.3358    0.0000 H   0  0  0  0  0  0  0  0  0  0  0  0
   14.7423    1.6894    0.0000 H   0  0  0  0  0  0  0  0  0  0  0  0
   12.9790    4.1164    0.0000 H   0  0  0  0  0  0  0  0  0  0  0  0
   15.0742    3.7846    0.0000 H   0  0  0  0  0  0  0  0  0  0  0  0
    4.3159    6.2839    0.0000 H   0  0  0  0  0  0  0  0  0  0  0  0
    6.4259    4.5834    0.0000 H   0  0  0  0  0  0  0  0  0  0  0  0
    5.9708    7.8215    0.0000 H   0  0  0  0  0  0  0  0  0  0  0  0
  1  2  1  0
  2  3  1  0
  4  1  1  0
  1  5  2  0
  6  4  1  0
  4  7  1  0
  5  8  1  0
  5  9  1  0
 10  6  1  0
  9  6  2  0
  8 11  2  0
  8 12  1  0
  9 13  1  0
 14 10  2  0
 10 15  1  0
 12 16  1  0
 12 17  1  0
 13 18  1  0
 13 19  1  0
 13 20  1  0
 21 14  1  0
 14 22  1  0
 16 23  1  0
 16 24  1  0
 16 25  1  0
 26 21  2  0
 21 27  1  0
 22 28  2  0
 22 29  1  0
 23 30  1  0
 23 31  1  0
 23 32  1  0
 33 26  1  0
 29 26  1  0
 27 34  2  0
 27 35  1  0
 29 36  1  0
 30 37  1  0
 30 38  1  0
 39 33  2  0
 33 40  1  0
 41 34  1  0
 34 39  1  0
 37 42  1  0
 37 43  1  0
 37 44  1  0
 38 45  1  0
 38 46  1  0
 38 47  1  0
 39 48  1  0
 42 49  1  0
 42 50  1  0
 42 51  1  0
 45 52  1  0
 45 53  1  0
 45 54  1  0
  2 55  1  0
  2 56  1  0
  3 57  1  0
M  END
>  <SMILES>  (2) 
CCN(CC)CCNC(=O)c1c(CO)[nH]c(C=C2C(=O)Nc3ccc(F)cc32)c1C

>  <Molecular Weight>  (2) 
414.5

>  <Substrate_ID>  (2) 
MOL0055

>  <Substrate>  (2) 


>  <Substrate_SMILES>  (2) 
CCN(CC)CCNC(=O)c1c(C)[nH]c(C=C2C(=O)Nc3ccc(F)cc32)c1C

>  <Reaction>  (2) 
benzylic_hydroxylation_(c-CH3),aliphatic hydroxylation

>  <Score>  (2) 
0.1527

>  <Reaction_Score>  (2) 
0.1782

>  <Bond_Score>  (2) 
0.1308

>  <Rank>  (2) 
2

>  <Subtype>  (2) 
REACTION

>  <Subtype_Scores>  (2) 
[REACTION] SOM_score: 0.1308, Reaction_score: 0.1782, Score: 0.1527


$$$$

     RDKit          2D

 57 59  0  0  0  0  0  0  0  0999 V2000
   10.0633    1.7496    0.0000 C   0  0  0  0  0  0  0  0  0 19  0  0
   11.4336    1.1395    0.0000 N   0  0  0  0  0  4  0  0  0  7  0  0
   10.8235   -0.2308    0.0000 C   0  0  0  0  0  0  0  0  0 17  0  0
   12.0437    2.5099    0.0000 C   0  0  0  0  0  0  0  0  0 18  0  0
   12.8039    0.5294    0.0000 O   0  0  0  0  0  1  0  0  0 30  0  0
    8.6930    2.3597    0.0000 C   0  0  0  0  0  0  0  0  0 16  0  0
    9.4532    0.3793    0.0000 H   0  0  0  0  0  0  0  0  0  0  0  0
   10.5018    3.1841    0.0000 H   0  0  0  0  0  0  0  0  0  0  0  0
    7.3226    2.9699    0.0000 N   0  0  0  0  0  0  0  0  0  4  0  0
    9.3031    3.7301    0.0000 H   0  0  0  0  0  0  0  0  0  0  0  0
    8.0829    0.9894    0.0000 H   0  0  0  0  0  0  0  0  0  0  0  0
    6.1091    2.0882    0.0000 C   0  0  0  0  0  0  0  0  0 21  0  0
    7.3439    4.1847    0.0000 H   0  0  0  0  0  0  0  0  0  0  0  0
    4.7388    2.6983    0.0000 C   0  0  0  0  0  0  0  0  0 29  0  0
    6.2659    0.5964    0.0000 O   0  0  0  0  0  0  0  0  0  3  0  0
    4.4269    4.1655    0.0000 C   0  0  0  0  0  0  0  0  0 26  0  0
    3.4398    1.9483    0.0000 C   0  0  0  0  0  0  0  0  0 28  0  0
    2.9352    4.3223    0.0000 N   0  0  0  0  0  0  0  0  0  6  0  0
    5.4306    5.2802    0.0000 C   0  0  0  0  0  0  0  0  0 10  0  0
    3.2830    0.4565    0.0000 C   0  0  0  0  0  0  0  0  0 11  0  0
    2.3250    2.9520    0.0000 C   0  0  0  0  0  0  0  0  0 27  0  0
    2.1852    5.6213    0.0000 H   0  0  0  0  0  0  0  0  0  0  0  0
    4.3159    6.2839    0.0000 H   0  0  0  0  0  0  0  0  0  0  0  0
    6.4259    4.5834    0.0000 H   0  0  0  0  0  0  0  0  0  0  0  0
    6.4343    6.3949    0.0000 H   0  0  0  0  0  0  0  0  0  0  0  0
    4.7748    0.2997    0.0000 H   0  0  0  0  0  0  0  0  0  0  0  0
    1.7912    0.6133    0.0000 H   0  0  0  0  0  0  0  0  0  0  0  0
    3.1801   -0.5223    0.0000 H   0  0  0  0  0  0  0  0  0  0  0  0
    0.8578    2.6401    0.0000 C   0  0  0  0  0  0  0  0  0 12  0  0
    0.3943    1.2135    0.0000 C   0  0  0  0  0  0  0  0  0 22  0  0
   -0.1459    3.7548    0.0000 H   0  0  0  0  0  0  0  0  0  0  0  0
   -1.0323    0.7500    0.0000 C   0  0  0  0  0  0  0  0  0 25  0  0
    1.2760    0.0000    0.0000 C   0  0  0  0  0  0  0  0  0 20  0  0
   -1.0323   -0.7500    0.0000 C   0  0  0  0  0  0  0  0  0 24  0  0
   -2.3313    1.5000    0.0000 C   0  0  0  0  0  0  0  0  0 15  0  0
    2.2309   -0.2381    0.0000 O   0  0  0  0  0  0  0  0  0  2  0  0
    0.3943   -1.2135    0.0000 N   0  0  0  0  0  0  0  0  0  5  0  0
   -2.3313   -1.5000    0.0000 C   0  0  0  0  0  0  0  0  0 14  0  0
   -3.6304    0.7500    0.0000 C   0  0  0  0  0  0  0  0  0 23  0  0
   -2.3313    3.0000    0.0000 H   0  0  0  0  0  0  0  0  0  0  0  0
    0.8578   -2.6401    0.0000 H   0  0  0  0  0  0  0  0  0  0  0  0
   -3.6304   -0.7500    0.0000 C   0  0  0  0  0  0  0  0  0 13  0  0
   -2.3313   -3.0000    0.0000 H   0  0  0  0  0  0  0  0  0  0  0  0
   -4.9294    1.5000    0.0000 F   0  0  0  0  0  0  0  0  0  1  0  0
   -4.9294   -1.5000    0.0000 H   0  0  0  0  0  0  0  0  0  0  0  0
   10.2134   -1.6011    0.0000 C   0  0  0  0  0  0  0  0  0  8  0  0
   11.5068   -0.6414    0.0000 H   0  0  0  0  0  0  0  0  0  0  0  0
   11.5858   -0.4638    0.0000 H   0  0  0  0  0  0  0  0  0  0  0  0
   11.5837   -2.2112    0.0000 H   0  0  0  0  0  0  0  0  0  0  0  0
    8.8431   -0.9910    0.0000 H   0  0  0  0  0  0  0  0  0  0  0  0
    9.6033   -2.9714    0.0000 H   0  0  0  0  0  0  0  0  0  0  0  0
   12.6538    3.8802    0.0000 C   0  0  0  0  0  0  0  0  0  9  0  0
   13.4140    1.8998    0.0000 H   0  0  0  0  0  0  0  0  0  0  0  0
   10.7580    3.2824    0.0000 H   0  0  0  0  0  0  0  0  0  0  0  0
   14.0241    3.2701    0.0000 H   0  0  0  0  0  0  0  0  0  0  0  0
   11.2835    4.4903    0.0000 H   0  0  0  0  0  0  0  0  0  0  0  0
   13.2639    5.2505    0.0000 H   0  0  0  0  0  0  0  0  0  0  0  0
  1  2  1  0
  2  3  1  0
  2  4  1  0
  2  5  1  0
  6  1  1  0
  1  7  1  0
  1  8  1  0
  9  6  1  0
  6 10  1  0
  6 11  1  0
 12  9  1  0
  9 13  1  0
 14 12  1  0
 12 15  2  0
 16 14  2  0
 14 17  1  0
 18 16  1  0
 16 19  1  0
 17 20  1  0
 17 21  2  0
 21 18  1  0
 18 22  1  0
 19 23  1  0
 19 24  1  0
 19 25  1  0
 20 26  1  0
 20 27  1  0
 20 28  1  0
 29 21  1  0
 30 29  2  0
 29 31  1  0
 32 30  1  0
 30 33  1  0
 34 32  2  0
 32 35  1  0
 33 36  2  0
 33 37  1  0
 38 34  1  0
 37 34  1  0
 35 39  2  0
 35 40  1  0
 37 41  1  0
 42 38  2  0
 38 43  1  0
 44 39  1  0
 39 42  1  0
 42 45  1  0
  3 46  1  0
  3 47  1  0
  3 48  1  0
 46 49  1  0
 46 50  1  0
 46 51  1  0
  4 52  1  0
  4 53  1  0
  4 54  1  0
 52 55  1  0
 52 56  1  0
 52 57  1  0
M  CHG  2   2   1   5  -1
M  END
>  <SMILES>  (3) 
CC[N+]([O-])(CC)CCNC(=O)c1c(C)[nH]c(C=C2C(=O)Nc3ccc(F)cc32)c1C

>  <Molecular Weight>  (3) 
414.5

>  <Substrate_ID>  (3) 
MOL0055

>  <Substrate>  (3) 


>  <Substrate_SMILES>  (3) 
CCN(CC)CCNC(=O)c1c(C)[nH]c(C=C2C(=O)Nc3ccc(F)cc32)c1C

>  <Reaction>  (3) 
N-oxidation_(tertiary_N),N-oxidation

>  <Score>  (3) 
0.0715

>  <Reaction_Score>  (3) 
0.0054

>  <Bond_Score>  (3) 
0.9465

>  <Rank>  (3) 
3

>  <Subtype>  (3) 
REACTION

>  <Subtype_Scores>  (3) 
[REACTION] SOM_score: 0.9465, Reaction_score: 0.0054, Score: 0.0715


$$$$
