
     RDKit          2D

 35 36  0  0  0  0  0  0  0  0999 V2000
    1.5000    0.0000    0.0000 C   0  0  0  0  0  0  0  0  0 17  0  0
    3.0000    0.0000    0.0000 C   0  0  0  0  0  0  0  0  0  9  0  0
    4.5000    0.0000    0.0000 O   0  0  0  0  0  0  0  0  0 22  0  0
    0.7500   -1.2990    0.0000 C   0  0  0  0  0  0  0  0  0 13  0  0
    0.7500    1.2990    0.0000 C   0  0  0  0  0  0  0  0  0 14  0  0
   -0.7500   -1.2990    0.0000 C   0  0  0  0  0  0  0  0  0 15  0  0
    1.5000   -2.5981    0.0000 H   0  0  0  0  0  0  0  0  0  0  0  0
   -0.7500    1.2990    0.0000 C   0  0  0  0  0  0  0  0  0 16  0  0
    1.5000    2.5981    0.0000 H   0  0  0  0  0  0  0  0  0  0  0  0
   -1.5000    0.0000    0.0000 C   0  0  0  0  0  0  0  0  0 18  0  0
   -1.1929   -2.0661    0.0000 H   0  0  0  0  0  0  0  0  0  0  0  0
   -1.5000    2.5981    0.0000 H   0  0  0  0  0  0  0  0  0  0  0  0
   -3.0000    0.0000    0.0000 C   0  0  0  0  0  0  0  0  0 21  0  0
   -3.8817   -1.2135    0.0000 N   0  0  0  0  0  0  0  0  0  8  0  0
   -3.8817    1.2135    0.0000 C   0  0  0  0  0  0  0  0  0 19  0  0
   -5.3083   -0.7500    0.0000 C   0  0  0  0  0  0  0  0  0 20  0  0
   -3.4182   -2.6401    0.0000 S   0  0  0  0  0  6  0  0  0  2  0  0
   -3.4182    2.6401    0.0000 Cl  0  0  0  0  0  0  0  0  0  1  0  0
   -5.3083    0.7500    0.0000 N   0  0  0  0  0  0  0  0  0  6  0  0
   -6.5218   -1.6317    0.0000 C   0  0  0  0  0  0  0  0  0 12  0  0
   -4.8447   -3.1036    0.0000 O   0  0  0  0  0  0  0  0  0  3  0  0
   -2.3447   -2.4315    0.0000 O   0  0  0  0  0  0  0  0  0  4  0  0
   -2.9546   -4.0667    0.0000 N   0  0  0  0  0  0  0  0  0  7  0  0
   -7.7353   -2.5134    0.0000 N   0  0  0  0  0  0  0  0  0  5  0  0
   -3.9583   -5.1814    0.0000 C   0  0  0  0  0  0  0  0  0 10  0  0
   -1.4874   -4.3786    0.0000 C   0  0  0  0  0  0  0  0  0 11  0  0
   -4.9620   -6.2961    0.0000 H   0  0  0  0  0  0  0  0  0  0  0  0
   -2.8436   -6.1851    0.0000 H   0  0  0  0  0  0  0  0  0  0  0  0
   -5.0730   -4.1777    0.0000 H   0  0  0  0  0  0  0  0  0  0  0  0
   -0.0202   -4.6904    0.0000 H   0  0  0  0  0  0  0  0  0  0  0  0
   -1.7993   -5.8458    0.0000 H   0  0  0  0  0  0  0  0  0  0  0  0
   -1.3815   -3.1682    0.0000 H   0  0  0  0  0  0  0  0  0  0  0  0
    3.0000   -1.5000    0.0000 H   0  0  0  0  0  0  0  0  0  0  0  0
    3.0000    1.5000    0.0000 H   0  0  0  0  0  0  0  0  0  0  0  0
    5.2500    1.2990    0.0000 H   0  0  0  0  0  0  0  0  0  0  0  0
  1  2  1  0
  2  3  1  0
  4  1  2  0
  1  5  1  0
  6  4  1  0
  4  7  1  0
  5  8  2  0
  5  9  1  0
 10  6  2  0
  6 11  1  0
  8 10  1  0
  8 12  1  0
 13 10  1  0
 14 13  1  0
 13 15  2  0
 16 14  1  0
 14 17  1  0
 18 15  1  0
 15 19  1  0
 19 16  2  0
 16 20  1  0
 17 21  2  0
 17 22  2  0
 17 23  1  0
 20 24  3  0
 23 25  1  0
 23 26  1  0
 25 27  1  0
 25 28  1  0
 25 29  1  0
 26 30  1  0
 26 31  1  0
 26 32  1  0
  2 33  1  0
  2 34  1  0
  3 35  1  0
M  END
>  <SMILES>  (1) 
CN(C)S(=O)(=O)n1c(C#N)nc(Cl)c1-c1ccc(CO)cc1

>  <Molecular Weight>  (1) 
340.8

>  <Substrate_ID>  (1) 
MOL0036

>  <Substrate>  (1) 


>  <Substrate_SMILES>  (1) 
Cc1ccc(-c2c(Cl)nc(C#N)n2S(=O)(=O)N(C)C)cc1

>  <Reaction>  (1) 
benzylic_hydroxylation_(c-CH3),aliphatic hydroxylation

>  <Score>  (1) 
0.6157

>  <Reaction_Score>  (1) 
0.5982

>  <Bond_Score>  (1) 
0.6336

>  <Rank>  (1) 
1

>  <Subtype>  (1) 
REACTION

>  <Subtype_Scores>  (1) 
[REACTION] SOM_score: 0.6336, Reaction_score: 0.5982, Score: 0.6157


$$$$
