
     RDKit          2D

 44 46  0  0  0  0  0  0  0  0999 V2000
    1.5000   -0.0000    0.0000 C   0  0  0  0  0  0  0  0  0 17  0  0
    3.0000   -0.0000    0.0000 C   0  0  0  0  0  0  0  0  0  4  0  0
    4.5000   -0.0000    0.0000 O   0  0  0  0  0  0  0  0  0 22  0  0
    0.7500    1.2990    0.0000 C   0  0  0  0  0  0  0  0  0  8  0  0
    0.7500   -1.2990    0.0000 C   0  0  0  0  0  0  0  0  0  9  0  0
   -0.7500    1.2990    0.0000 C   0  0  0  0  0  0  0  0  0 10  0  0
    1.5000    2.5981    0.0000 H   0  0  0  0  0  0  0  0  0  0  0  0
   -0.7500   -1.2990    0.0000 C   0  0  0  0  0  0  0  0  0 18  0  0
    1.5000   -2.5981    0.0000 H   0  0  0  0  0  0  0  0  0  0  0  0
   -1.5000   -0.0000    0.0000 C   0  0  0  0  0  0  0  0  0 19  0  0
   -1.1345    2.2050    0.0000 H   0  0  0  0  0  0  0  0  0  0  0  0
   -1.5000   -2.5981    0.0000 C   0  0  0  0  0  0  0  0  0  5  0  0
   -3.0000   -0.0000    0.0000 S   0  0  0  0  0  0  0  0  0  1  0  0
   -2.2500   -3.8971    0.0000 H   0  0  0  0  0  0  0  0  0  0  0  0
   -2.7990   -1.8481    0.0000 H   0  0  0  0  0  0  0  0  0  0  0  0
   -0.2010   -3.3481    0.0000 H   0  0  0  0  0  0  0  0  0  0  0  0
   -3.7500    1.2990    0.0000 C   0  0  0  0  0  0  0  0  0 20  0  0
   -3.0000    2.5981    0.0000 C   0  0  0  0  0  0  0  0  0 11  0  0
   -5.2500    1.2990    0.0000 C   0  0  0  0  0  0  0  0  0 21  0  0
   -3.7500    3.8971    0.0000 C   0  0  0  0  0  0  0  0  0  6  0  0
   -2.0232    2.7180    0.0000 H   0  0  0  0  0  0  0  0  0  0  0  0
   -6.0000    2.5981    0.0000 C   0  0  0  0  0  0  0  0  0 12  0  0
   -6.0000    0.0000    0.0000 N   0  0  0  0  0  0  0  0  0  3  0  0
   -5.2500    3.8971    0.0000 C   0  0  0  0  0  0  0  0  0  7  0  0
   -3.0000    5.1962    0.0000 H   0  0  0  0  0  0  0  0  0  0  0  0
   -7.5000    2.5981    0.0000 H   0  0  0  0  0  0  0  0  0  0  0  0
   -7.5000    0.0000    0.0000 C   0  0  0  0  0  0  0  0  0 15  0  0
   -5.2500   -1.2990    0.0000 C   0  0  0  0  0  0  0  0  0 16  0  0
   -6.0000    5.1962    0.0000 H   0  0  0  0  0  0  0  0  0  0  0  0
   -8.2500   -1.2990    0.0000 C   0  0  0  0  0  0  0  0  0 13  0  0
   -8.9095    0.5130    0.0000 H   0  0  0  0  0  0  0  0  0  0  0  0
   -7.2395    1.4772    0.0000 H   0  0  0  0  0  0  0  0  0  0  0  0
   -6.0000   -2.5981    0.0000 C   0  0  0  0  0  0  0  0  0 14  0  0
   -4.1009   -0.3349    0.0000 H   0  0  0  0  0  0  0  0  0  0  0  0
   -4.1009   -2.2632    0.0000 H   0  0  0  0  0  0  0  0  0  0  0  0
   -7.5000   -2.5981    0.0000 N   0  0  0  0  0  0  0  0  0  2  0  0
   -9.3991   -2.2632    0.0000 H   0  0  0  0  0  0  0  0  0  0  0  0
   -9.3991   -0.3349    0.0000 H   0  0  0  0  0  0  0  0  0  0  0  0
   -4.5905   -3.1111    0.0000 H   0  0  0  0  0  0  0  0  0  0  0  0
   -6.2605   -4.0753    0.0000 H   0  0  0  0  0  0  0  0  0  0  0  0
   -8.2500   -3.8971    0.0000 H   0  0  0  0  0  0  0  0  0  0  0  0
    3.0000    1.5000    0.0000 H   0  0  0  0  0  0  0  0  0  0  0  0
    3.0000   -1.5000    0.0000 H   0  0  0  0  0  0  0  0  0  0  0  0
    5.2500   -1.2990    0.0000 H   0  0  0  0  0  0  0  0  0  0  0  0
  1  2  1  0
  2  3  1  0
  4  1  2  0
  1  5  1  0
  6  4  1  0
  4  7  1  0
  5  8  2  0
  5  9  1  0
 10  6  2  0
  6 11  1  0
  8 12  1  0
  8 10  1  0
 13 10  1  0
 12 14  1  0
 12 15  1  0
 12 16  1  0
 13 17  1  0
 17 18  2  0
 19 17  1  0
 18 20  1  0
 18 21  1  0
 22 19  2  0
 19 23  1  0
 20 24  2  0
 20 25  1  0
 24 22  1  0
 22 26  1  0
 23 27  1  0
 28 23  1  0
 24 29  1  0
 27 30  1  0
 27 31  1  0
 27 32  1  0
 33 28  1  0
 28 34  1  0
 28 35  1  0
 30 36  1  0
 30 37  1  0
 30 38  1  0
 36 33  1  0
 33 39  1  0
 33 40  1  0
 36 41  1  0
  2 42  1  0
  2 43  1  0
  3 44  1  0
M  END
>  <SMILES>  (1) 
Cc1cc(CO)ccc1Sc1ccccc1N1CCNCC1

>  <Molecular Weight>  (1) 
314.5

>  <Substrate_ID>  (1) 
MOL0034

>  <Substrate>  (1) 


>  <Substrate_SMILES>  (1) 
Cc1ccc(Sc2ccccc2N2CCNCC2)c(C)c1

>  <Reaction>  (1) 
benzylic_hydroxylation_(c-CH3),aliphatic hydroxylation

>  <Score>  (1) 
0.5973

>  <Reaction_Score>  (1) 
0.5784

>  <Bond_Score>  (1) 
0.6169

>  <Rank>  (1) 
1

>  <Subtype>  (1) 
REACTION

>  <Subtype_Scores>  (1) 
[REACTION] SOM_score: 0.6169, Reaction_score: 0.5784, Score: 0.5973


$$$$

     RDKit          2D

 44 46  0  0  0  0  0  0  0  0999 V2000
    0.7500   -1.2990    0.0000 C   0  0  0  0  0  0  0  0  0 19  0  0
    1.5000   -2.5981    0.0000 S   0  0  0  0  0  4  0  0  0  1  0  0
    3.0000   -2.5981    0.0000 O   0  0  0  0  0  0  0  0  0 22  0  0
    0.7500   -3.8971    0.0000 C   0  0  0  0  0  0  0  0  0 20  0  0
   -0.7500   -1.2990    0.0000 C   0  0  0  0  0  0  0  0  0 10  0  0
    1.5000   -0.0000    0.0000 C   0  0  0  0  0  0  0  0  0 18  0  0
   -1.5000   -0.0000    0.0000 C   0  0  0  0  0  0  0  0  0  8  0  0
   -1.3423   -2.0850    0.0000 H   0  0  0  0  0  0  0  0  0  0  0  0
    0.7500    1.2990    0.0000 C   0  0  0  0  0  0  0  0  0  9  0  0
    3.0000   -0.0000    0.0000 C   0  0  0  0  0  0  0  0  0  5  0  0
   -0.7500    1.2990    0.0000 C   0  0  0  0  0  0  0  0  0 17  0  0
   -3.0000   -0.0000    0.0000 H   0  0  0  0  0  0  0  0  0  0  0  0
    1.5000    2.5981    0.0000 H   0  0  0  0  0  0  0  0  0  0  0  0
    4.5000    0.0000    0.0000 H   0  0  0  0  0  0  0  0  0  0  0  0
    3.0000    1.5000    0.0000 H   0  0  0  0  0  0  0  0  0  0  0  0
    3.0000   -1.5000    0.0000 H   0  0  0  0  0  0  0  0  0  0  0  0
   -1.5000    2.5981    0.0000 C   0  0  0  0  0  0  0  0  0  4  0  0
   -2.2500    3.8971    0.0000 H   0  0  0  0  0  0  0  0  0  0  0  0
   -2.7990    1.8481    0.0000 H   0  0  0  0  0  0  0  0  0  0  0  0
   -0.2010    3.3481    0.0000 H   0  0  0  0  0  0  0  0  0  0  0  0
   -0.7500   -3.8971    0.0000 C   0  0  0  0  0  0  0  0  0 11  0  0
    1.5000   -5.1962    0.0000 C   0  0  0  0  0  0  0  0  0 21  0  0
   -1.5000   -5.1962    0.0000 C   0  0  0  0  0  0  0  0  0  6  0  0
   -1.3423   -3.1112    0.0000 H   0  0  0  0  0  0  0  0  0  0  0  0
    0.7500   -6.4952    0.0000 C   0  0  0  0  0  0  0  0  0 12  0  0
    3.0000   -5.1962    0.0000 N   0  0  0  0  0  0  0  0  0  3  0  0
   -0.7500   -6.4952    0.0000 C   0  0  0  0  0  0  0  0  0  7  0  0
   -3.0000   -5.1962    0.0000 H   0  0  0  0  0  0  0  0  0  0  0  0
    1.5000   -7.7942    0.0000 H   0  0  0  0  0  0  0  0  0  0  0  0
    3.7500   -6.4952    0.0000 C   0  0  0  0  0  0  0  0  0 15  0  0
    3.7500   -3.8971    0.0000 C   0  0  0  0  0  0  0  0  0 16  0  0
   -1.5000   -7.7942    0.0000 H   0  0  0  0  0  0  0  0  0  0  0  0
    5.2500   -6.4952    0.0000 C   0  0  0  0  0  0  0  0  0 13  0  0
    4.0105   -7.9724    0.0000 H   0  0  0  0  0  0  0  0  0  0  0  0
    2.3405   -7.0082    0.0000 H   0  0  0  0  0  0  0  0  0  0  0  0
    5.2500   -3.8971    0.0000 C   0  0  0  0  0  0  0  0  0 14  0  0
    2.3405   -3.3841    0.0000 H   0  0  0  0  0  0  0  0  0  0  0  0
    4.0105   -2.4199    0.0000 H   0  0  0  0  0  0  0  0  0  0  0  0
    6.0000   -5.1962    0.0000 N   0  0  0  0  0  0  0  0  0  2  0  0
    6.6595   -7.0082    0.0000 H   0  0  0  0  0  0  0  0  0  0  0  0
    4.9895   -7.9724    0.0000 H   0  0  0  0  0  0  0  0  0  0  0  0
    4.9895   -2.4199    0.0000 H   0  0  0  0  0  0  0  0  0  0  0  0
    6.6595   -3.3841    0.0000 H   0  0  0  0  0  0  0  0  0  0  0  0
    7.5000   -5.1962    0.0000 H   0  0  0  0  0  0  0  0  0  0  0  0
  1  2  1  0
  2  3  2  0
  2  4  1  0
  1  5  2  0
  6  1  1  0
  5  7  1  0
  5  8  1  0
  9  6  2  0
  6 10  1  0
  7 11  2  0
  7 12  1  0
 11  9  1  0
  9 13  1  0
 10 14  1  0
 10 15  1  0
 10 16  1  0
 11 17  1  0
 17 18  1  0
 17 19  1  0
 17 20  1  0
  4 21  2  0
 22  4  1  0
 21 23  1  0
 21 24  1  0
 25 22  2  0
 22 26  1  0
 23 27  2  0
 23 28  1  0
 27 25  1  0
 25 29  1  0
 26 30  1  0
 31 26  1  0
 27 32  1  0
 30 33  1  0
 30 34  1  0
 30 35  1  0
 36 31  1  0
 31 37  1  0
 31 38  1  0
 33 39  1  0
 33 40  1  0
 33 41  1  0
 39 36  1  0
 36 42  1  0
 36 43  1  0
 39 44  1  0
M  END
>  <SMILES>  (2) 
Cc1ccc(S(=O)c2ccccc2N2CCNCC2)c(C)c1

>  <Molecular Weight>  (2) 
314.5

>  <Substrate_ID>  (2) 
MOL0034

>  <Substrate>  (2) 


>  <Substrate_SMILES>  (2) 
Cc1ccc(Sc2ccccc2N2CCNCC2)c(C)c1

>  <Reaction>  (2) 
sulfide_oxidation_(c-S-c),S-oxidation

>  <Score>  (2) 
0.4327

>  <Reaction_Score>  (2) 
0.2459

>  <Bond_Score>  (2) 
0.7615

>  <Rank>  (2) 
2

>  <Subtype>  (2) 
REACTION

>  <Subtype_Scores>  (2) 
[REACTION] SOM_score: 0.7615, Reaction_score: 0.2459, Score: 0.4327


$$$$

     RDKit          2D

 44 46  0  0  0  0  0  0  0  0999 V2000
    3.7500    1.2990    0.0000 C   0  0  0  0  0  0  0  0  0 18  0  0
    3.0000    0.0000    0.0000 C   0  0  0  0  0  0  0  0  0  5  0  0
    2.2500   -1.2990    0.0000 O   0  0  0  0  0  0  0  0  0 22  0  0
    5.2500    1.2990    0.0000 C   0  0  0  0  0  0  0  0  0  9  0  0
    3.0000    2.5981    0.0000 C   0  0  0  0  0  0  0  0  0 19  0  0
    6.0000    2.5981    0.0000 C   0  0  0  0  0  0  0  0  0 17  0  0
    6.0000   -0.0000    0.0000 H   0  0  0  0  0  0  0  0  0  0  0  0
    1.5000    2.5981    0.0000 S   0  0  0  0  0  0  0  0  0  1  0  0
    3.7500    3.8971    0.0000 C   0  0  0  0  0  0  0  0  0 10  0  0
    5.2500    3.8971    0.0000 C   0  0  0  0  0  0  0  0  0  8  0  0
    7.5000    2.5981    0.0000 C   0  0  0  0  0  0  0  0  0  4  0  0
    0.7500    3.8971    0.0000 C   0  0  0  0  0  0  0  0  0 20  0  0
    3.3655    4.8030    0.0000 H   0  0  0  0  0  0  0  0  0  0  0  0
    6.0000    5.1962    0.0000 H   0  0  0  0  0  0  0  0  0  0  0  0
    9.0000    2.5981    0.0000 H   0  0  0  0  0  0  0  0  0  0  0  0
    7.5000    4.0981    0.0000 H   0  0  0  0  0  0  0  0  0  0  0  0
    7.5000    1.0981    0.0000 H   0  0  0  0  0  0  0  0  0  0  0  0
    1.5000    5.1962    0.0000 C   0  0  0  0  0  0  0  0  0 11  0  0
   -0.7500    3.8971    0.0000 C   0  0  0  0  0  0  0  0  0 21  0  0
    0.7500    6.4952    0.0000 C   0  0  0  0  0  0  0  0  0  6  0  0
    2.4768    5.3161    0.0000 H   0  0  0  0  0  0  0  0  0  0  0  0
   -1.5000    5.1962    0.0000 C   0  0  0  0  0  0  0  0  0 12  0  0
   -1.5000    2.5981    0.0000 N   0  0  0  0  0  0  0  0  0  3  0  0
   -0.7500    6.4952    0.0000 C   0  0  0  0  0  0  0  0  0  7  0  0
    1.5000    7.7942    0.0000 H   0  0  0  0  0  0  0  0  0  0  0  0
   -3.0000    5.1962    0.0000 H   0  0  0  0  0  0  0  0  0  0  0  0
   -3.0000    2.5981    0.0000 C   0  0  0  0  0  0  0  0  0 15  0  0
   -0.7500    1.2990    0.0000 C   0  0  0  0  0  0  0  0  0 16  0  0
   -1.5000    7.7942    0.0000 H   0  0  0  0  0  0  0  0  0  0  0  0
   -3.7500    1.2990    0.0000 C   0  0  0  0  0  0  0  0  0 13  0  0
   -4.4095    3.1111    0.0000 H   0  0  0  0  0  0  0  0  0  0  0  0
   -2.7395    4.0753    0.0000 H   0  0  0  0  0  0  0  0  0  0  0  0
   -1.5000   -0.0000    0.0000 C   0  0  0  0  0  0  0  0  0 14  0  0
    0.3991    2.2632    0.0000 H   0  0  0  0  0  0  0  0  0  0  0  0
    0.3991    0.3349    0.0000 H   0  0  0  0  0  0  0  0  0  0  0  0
   -3.0000   -0.0000    0.0000 N   0  0  0  0  0  0  0  0  0  2  0  0
   -4.8991    0.3349    0.0000 H   0  0  0  0  0  0  0  0  0  0  0  0
   -4.8991    2.2632    0.0000 H   0  0  0  0  0  0  0  0  0  0  0  0
   -0.0905   -0.5130    0.0000 H   0  0  0  0  0  0  0  0  0  0  0  0
   -1.7605   -1.4772    0.0000 H   0  0  0  0  0  0  0  0  0  0  0  0
   -3.7500   -1.2990    0.0000 H   0  0  0  0  0  0  0  0  0  0  0  0
    4.2990   -0.7500    0.0000 H   0  0  0  0  0  0  0  0  0  0  0  0
    1.7010    0.7500    0.0000 H   0  0  0  0  0  0  0  0  0  0  0  0
    0.7500   -1.2990    0.0000 H   0  0  0  0  0  0  0  0  0  0  0  0
  1  2  1  0
  2  3  1  0
  4  1  2  0
  1  5  1  0
  6  4  1  0
  4  7  1  0
  8  5  1  0
  5  9  2  0
 10  6  2  0
  6 11  1  0
  8 12  1  0
  9 10  1  0
  9 13  1  0
 10 14  1  0
 11 15  1  0
 11 16  1  0
 11 17  1  0
 12 18  2  0
 19 12  1  0
 18 20  1  0
 18 21  1  0
 22 19  2  0
 19 23  1  0
 20 24  2  0
 20 25  1  0
 24 22  1  0
 22 26  1  0
 23 27  1  0
 28 23  1  0
 24 29  1  0
 27 30  1  0
 27 31  1  0
 27 32  1  0
 33 28  1  0
 28 34  1  0
 28 35  1  0
 30 36  1  0
 30 37  1  0
 30 38  1  0
 36 33  1  0
 33 39  1  0
 33 40  1  0
 36 41  1  0
  2 42  1  0
  2 43  1  0
  3 44  1  0
M  END
>  <SMILES>  (3) 
Cc1ccc(Sc2ccccc2N2CCNCC2)c(CO)c1

>  <Molecular Weight>  (3) 
314.5

>  <Substrate_ID>  (3) 
MOL0034

>  <Substrate>  (3) 


>  <Substrate_SMILES>  (3) 
Cc1ccc(Sc2ccccc2N2CCNCC2)c(C)c1

>  <Reaction>  (3) 
benzylic_hydroxylation_(c-CH3),aliphatic hydroxylation

>  <Score>  (3) 
0.2662

>  <Reaction_Score>  (3) 
0.2905

>  <Bond_Score>  (3) 
0.2439

>  <Rank>  (3) 
3

>  <Subtype>  (3) 
REACTION

>  <Subtype_Scores>  (3) 
[REACTION] SOM_score: 0.2439, Reaction_score: 0.2905, Score: 0.2662


$$$$

     RDKit          2D

 44 46  0  0  0  0  0  0  0  0999 V2000
    1.5000    0.0000    0.0000 N   0  0  0  0  0  0  0  0  0  2  0  0
    3.0000    0.0000    0.0000 O   0  0  0  0  0  0  0  0  0 22  0  0
    3.7500   -1.2990    0.0000 H   0  0  0  0  0  0  0  0  0  0  0  0
    0.7500   -1.2990    0.0000 C   0  0  0  0  0  0  0  0  0 13  0  0
    0.7500    1.2990    0.0000 C   0  0  0  0  0  0  0  0  0 14  0  0
   -0.7500    1.2990    0.0000 C   0  0  0  0  0  0  0  0  0 16  0  0
    0.4895    2.7762    0.0000 H   0  0  0  0  0  0  0  0  0  0  0  0
    2.1595    1.8121    0.0000 H   0  0  0  0  0  0  0  0  0  0  0  0
   -1.5000    0.0000    0.0000 N   0  0  0  0  0  0  0  0  0  3  0  0
   -2.1595    1.8121    0.0000 H   0  0  0  0  0  0  0  0  0  0  0  0
   -0.4895    2.7762    0.0000 H   0  0  0  0  0  0  0  0  0  0  0  0
   -3.0000    0.0000    0.0000 C   0  0  0  0  0  0  0  0  0 21  0  0
   -0.7500   -1.2990    0.0000 C   0  0  0  0  0  0  0  0  0 15  0  0
   -3.7500    1.2990    0.0000 C   0  0  0  0  0  0  0  0  0 12  0  0
   -3.7500   -1.2990    0.0000 C   0  0  0  0  0  0  0  0  0 20  0  0
   -0.4895   -2.7762    0.0000 H   0  0  0  0  0  0  0  0  0  0  0  0
   -2.1595   -1.8121    0.0000 H   0  0  0  0  0  0  0  0  0  0  0  0
   -5.2500    1.2990    0.0000 C   0  0  0  0  0  0  0  0  0  7  0  0
   -3.0000    2.5981    0.0000 H   0  0  0  0  0  0  0  0  0  0  0  0
   -3.0000   -2.5981    0.0000 S   0  0  0  0  0  0  0  0  0  1  0  0
   -5.2500   -1.2990    0.0000 C   0  0  0  0  0  0  0  0  0 11  0  0
   -6.0000    0.0000    0.0000 C   0  0  0  0  0  0  0  0  0  6  0  0
   -6.0000    2.5981    0.0000 H   0  0  0  0  0  0  0  0  0  0  0  0
   -3.7500   -3.8971    0.0000 C   0  0  0  0  0  0  0  0  0 19  0  0
   -5.8423   -2.0850    0.0000 H   0  0  0  0  0  0  0  0  0  0  0  0
   -7.5000    0.0000    0.0000 H   0  0  0  0  0  0  0  0  0  0  0  0
   -5.2500   -3.8971    0.0000 C   0  0  0  0  0  0  0  0  0 10  0  0
   -3.0000   -5.1962    0.0000 C   0  0  0  0  0  0  0  0  0 18  0  0
   -6.0000   -5.1962    0.0000 C   0  0  0  0  0  0  0  0  0  8  0  0
   -5.8423   -3.1112    0.0000 H   0  0  0  0  0  0  0  0  0  0  0  0
   -3.7500   -6.4952    0.0000 C   0  0  0  0  0  0  0  0  0  9  0  0
   -1.5000   -5.1962    0.0000 C   0  0  0  0  0  0  0  0  0  5  0  0
   -5.2500   -6.4952    0.0000 C   0  0  0  0  0  0  0  0  0 17  0  0
   -7.5000   -5.1962    0.0000 H   0  0  0  0  0  0  0  0  0  0  0  0
   -3.0000   -7.7942    0.0000 H   0  0  0  0  0  0  0  0  0  0  0  0
   -0.0000   -5.1962    0.0000 H   0  0  0  0  0  0  0  0  0  0  0  0
   -1.5000   -6.6962    0.0000 H   0  0  0  0  0  0  0  0  0  0  0  0
   -1.5000   -3.6962    0.0000 H   0  0  0  0  0  0  0  0  0  0  0  0
   -6.0000   -7.7942    0.0000 C   0  0  0  0  0  0  0  0  0  4  0  0
   -6.7500   -9.0933    0.0000 H   0  0  0  0  0  0  0  0  0  0  0  0
   -7.2990   -7.0442    0.0000 H   0  0  0  0  0  0  0  0  0  0  0  0
   -4.7010   -8.5442    0.0000 H   0  0  0  0  0  0  0  0  0  0  0  0
    2.1595   -1.8121    0.0000 H   0  0  0  0  0  0  0  0  0  0  0  0
    0.4895   -2.7762    0.0000 H   0  0  0  0  0  0  0  0  0  0  0  0
  1  2  1  0
  2  3  1  0
  1  4  1  0
  1  5  1  0
  5  6  1  0
  5  7  1  0
  5  8  1  0
  6  9  1  0
  6 10  1  0
  6 11  1  0
 12  9  1  0
  9 13  1  0
 14 12  2  0
 12 15  1  0
 13  4  1  0
 13 16  1  0
 13 17  1  0
 18 14  1  0
 14 19  1  0
 20 15  1  0
 15 21  2  0
 22 18  2  0
 18 23  1  0
 20 24  1  0
 21 22  1  0
 21 25  1  0
 22 26  1  0
 24 27  2  0
 28 24  1  0
 27 29  1  0
 27 30  1  0
 31 28  2  0
 28 32  1  0
 29 33  2  0
 29 34  1  0
 33 31  1  0
 31 35  1  0
 32 36  1  0
 32 37  1  0
 32 38  1  0
 33 39  1  0
 39 40  1  0
 39 41  1  0
 39 42  1  0
  4 43  1  0
  4 44  1  0
M  END
>  <SMILES>  (4) 
Cc1ccc(Sc2ccccc2N2CCN(O)CC2)c(C)c1

>  <Molecular Weight>  (4) 
314.5

>  <Substrate_ID>  (4) 
MOL0034

>  <Substrate>  (4) 


>  <Substrate_SMILES>  (4) 
Cc1ccc(Sc2ccccc2N2CCNCC2)c(C)c1

>  <Reaction>  (4) 
amine hydroxylation

>  <Score>  (4) 
0.0712

>  <Reaction_Score>  (4) 
0.025

>  <Bond_Score>  (4) 
0.2029

>  <Rank>  (4) 
4

>  <Subtype>  (4) 
REACTION

>  <Subtype_Scores>  (4) 
[REACTION] SOM_score: 0.2029, Reaction_score: 0.0250, Score: 0.0712


$$$$
