
     RDKit          2D

 32 33  0  0  0  0  0  0  0  0999 V2000
    1.5000    0.0000    0.0000 N   0  0  0  0  0  0  0  0  0  3  0  0
    0.7500   -1.2990    0.0000 C   0  0  0  0  0  0  0  0  0 16  0  0
    0.7500    1.2990    0.0000 C   0  0  0  0  0  0  0  0  0 30  0  0
   -0.7500   -1.2990    0.0000 C   0  0  0  0  0  0  0  0  0 15  0  0
    2.1595   -1.8121    0.0000 H   0  0  0  0  0  0  0  0  0  0  0  0
    0.4895   -2.7762    0.0000 H   0  0  0  0  0  0  0  0  0  0  0  0
   -0.7500    1.2990    0.0000 C   0  0  0  0  0  0  0  0  0 31  0  0
    0.4895    2.7762    0.0000 H   0  0  0  0  0  0  0  0  0  0  0  0
    2.1595    1.8121    0.0000 H   0  0  0  0  0  0  0  0  0  0  0  0
   -1.5000    0.0000    0.0000 N   0  0  0  0  0  0  0  0  0  2  0  0
   -0.4895   -2.7762    0.0000 H   0  0  0  0  0  0  0  0  0  0  0  0
   -2.0865   -1.9801    0.0000 H   0  0  0  0  0  0  0  0  0  0  0  0
   -2.0865    1.9801    0.0000 H   0  0  0  0  0  0  0  0  0  0  0  0
   -0.4895    2.7762    0.0000 H   0  0  0  0  0  0  0  0  0  0  0  0
   -3.0000    0.0000    0.0000 C   0  0  0  0  0  0  0  0  0 14  0  0
   -4.5000    0.0000    0.0000 C   0  0  0  0  0  0  0  0  0 13  0  0
   -3.1828   -1.4888    0.0000 H   0  0  0  0  0  0  0  0  0  0  0  0
   -3.1828    1.4888    0.0000 H   0  0  0  0  0  0  0  0  0  0  0  0
   -6.0000    0.0000    0.0000 C   0  0  0  0  0  0  0  0  0 12  0  0
   -4.5000    1.5000    0.0000 H   0  0  0  0  0  0  0  0  0  0  0  0
   -4.5000   -1.5000    0.0000 H   0  0  0  0  0  0  0  0  0  0  0  0
   -6.7500    1.2990    0.0000 C   0  0  0  0  0  0  0  0  0 11  0  0
   -6.7500   -1.2990    0.0000 C   0  0  0  0  0  0  0  0  0 32  0  0
   -8.2500    1.2990    0.0000 C   0  0  0  0  0  0  0  0  0 10  0  0
   -6.0000    2.5981    0.0000 H   0  0  0  0  0  0  0  0  0  0  0  0
   -8.2500   -1.2990    0.0000 C   0  0  0  0  0  0  0  0  0  8  0  0
   -6.0000   -2.5981    0.0000 H   0  0  0  0  0  0  0  0  0  0  0  0
   -9.0000    0.0000    0.0000 C   0  0  0  0  0  0  0  0  0  9  0  0
   -9.0000    2.5981    0.0000 H   0  0  0  0  0  0  0  0  0  0  0  0
   -9.0000   -2.5981    0.0000 F   0  0  0  0  0  0  0  0  0  1  0  0
  -10.5000    0.0000    0.0000 H   0  0  0  0  0  0  0  0  0  0  0  0
    3.0000    0.0000    0.0000 H   0  0  0  0  0  0  0  0  0  0  0  0
  2  1  1  0
  1  3  1  0
  4  2  1  0
  2  5  1  0
  2  6  1  0
  3  7  1  0
  3  8  1  0
  3  9  1  0
 10  4  1  0
  4 11  1  0
  4 12  1  0
  7 10  1  0
  7 13  1  0
  7 14  1  0
 15 10  1  0
 16 15  1  0
 15 17  1  0
 15 18  1  0
 19 16  1  0
 16 20  1  0
 16 21  1  0
 22 19  2  0
 19 23  1  0
 24 22  1  0
 22 25  1  0
 23 26  2  0
 23 27  1  0
 28 24  2  0
 24 29  1  0
 30 26  1  0
 26 28  1  0
 28 31  1  0
  1 32  1  0
M  END
>  <SMILES>  (1) 
Fc1cccc(CCN2CCNCC2)c1

>  <Molecular Weight>  (1) 
208.3

>  <Substrate_ID>  (1) 
MOL0087

>  <Substrate>  (1) 


>  <Substrate_SMILES>  (1) 
Fc1cccc(CCN2CCN(CCCc3c[nH]c4ccc(-n5cnnc5)cc34)CC2)c1

>  <Reaction>  (1) 
N-dealkylation_(tertiaryN-CH2-alkyl)

>  <Score>  (1) 
0.4696

>  <Reaction_Score>  (1) 
0.4705

>  <Bond_Score>  (1) 
0.4686

>  <Rank>  (1) 
1

>  <Subtype>  (1) 
REACTION

>  <Subtype_Scores>  (1) 
[REACTION] SOM_score: 0.4686, Reaction_score: 0.4705, Score: 0.4696


$$$$

     RDKit          2D

 32 34  0  0  0  0  0  0  0  0999 V2000
    7.2760    0.0000    0.0000 O   0  0  0  0  0  0  0  0  0 33  0  0
    5.7760    0.0000    0.0000 C   0  0  0  0  0  0  0  0  0 17  0  0
    4.2760    0.0000    0.0000 C   0  0  0  0  0  0  0  0  0 18  0  0
    5.7760    1.5000    0.0000 H   0  0  0  0  0  0  0  0  0  0  0  0
    5.7760   -1.5000    0.0000 H   0  0  0  0  0  0  0  0  0  0  0  0
    2.7760    0.0000    0.0000 C   0  0  0  0  0  0  0  0  0 19  0  0
    4.2760    1.5000    0.0000 H   0  0  0  0  0  0  0  0  0  0  0  0
    4.2760   -1.5000    0.0000 H   0  0  0  0  0  0  0  0  0  0  0  0
    1.2760    0.0000    0.0000 C   0  0  0  0  0  0  0  0  0 20  0  0
    2.7760    1.5000    0.0000 H   0  0  0  0  0  0  0  0  0  0  0  0
    2.7760   -1.5000    0.0000 H   0  0  0  0  0  0  0  0  0  0  0  0
    0.3943    1.2135    0.0000 C   0  0  0  0  0  0  0  0  0 21  0  0
    0.3943   -1.2135    0.0000 C   0  0  0  0  0  0  0  0  0 27  0  0
   -1.0323    0.7500    0.0000 N   0  0  0  0  0  0  0  0  0  4  0  0
    0.8578    2.6401    0.0000 H   0  0  0  0  0  0  0  0  0  0  0  0
    0.7062   -2.6807    0.0000 C   0  0  0  0  0  0  0  0  0 26  0  0
   -1.0323   -0.7500    0.0000 C   0  0  0  0  0  0  0  0  0 22  0  0
   -2.2458    1.6317    0.0000 H   0  0  0  0  0  0  0  0  0  0  0  0
   -0.4086   -3.6844    0.0000 C   0  0  0  0  0  0  0  0  0 25  0  0
    2.1328   -3.1443    0.0000 H   0  0  0  0  0  0  0  0  0  0  0  0
   -2.1470   -1.7537    0.0000 C   0  0  0  0  0  0  0  0  0 23  0  0
   -1.8351   -3.2209    0.0000 C   0  0  0  0  0  0  0  0  0 24  0  0
   -0.0967   -5.1517    0.0000 N   0  0  0  0  0  0  0  0  0  5  0  0
   -3.5736   -1.2902    0.0000 H   0  0  0  0  0  0  0  0  0  0  0  0
   -2.9499   -4.2246    0.0000 H   0  0  0  0  0  0  0  0  0  0  0  0
    1.2736   -5.7618    0.0000 C   0  0  0  0  0  0  0  0  0 28  0  0
   -1.1004   -6.2664    0.0000 C   0  0  0  0  0  0  0  0  0 29  0  0
    1.1168   -7.2536    0.0000 N   0  0  0  0  0  0  0  0  0  6  0  0
    2.5727   -5.0118    0.0000 H   0  0  0  0  0  0  0  0  0  0  0  0
   -0.3504   -7.5654    0.0000 N   0  0  0  0  0  0  0  0  0  7  0  0
   -2.5922   -6.1096    0.0000 H   0  0  0  0  0  0  0  0  0  0  0  0
    8.0260   -1.2990    0.0000 H   0  0  0  0  0  0  0  0  0  0  0  0
  1  2  1  0
  2  3  1  0
  2  4  1  0
  2  5  1  0
  3  6  1  0
  3  7  1  0
  3  8  1  0
  6  9  1  0
  6 10  1  0
  6 11  1  0
  9 12  2  0
 13  9  1  0
 12 14  1  0
 12 15  1  0
 16 13  2  0
 13 17  1  0
 14 17  1  0
 14 18  1  0
 19 16  1  0
 16 20  1  0
 17 21  2  0
 22 19  2  0
 19 23  1  0
 21 22  1  0
 21 24  1  0
 22 25  1  0
 23 26  1  0
 27 23  1  0
 26 28  2  0
 26 29  1  0
 30 27  2  0
 27 31  1  0
 28 30  1  0
  1 32  1  0
M  END
>  <SMILES>  (2) 
OCCCc1c[nH]c2ccc(-n3cnnc3)cc12

>  <Molecular Weight>  (2) 
242.3

>  <Substrate_ID>  (2) 
MOL0087

>  <Substrate>  (2) 


>  <Substrate_SMILES>  (2) 
Fc1cccc(CCN2CCN(CCCc3c[nH]c4ccc(-n5cnnc5)cc34)CC2)c1

>  <Reaction>  (2) 
N-dealkylation_(tertiaryN-CH2-alkyl)

>  <Score>  (2) 
0.4696

>  <Reaction_Score>  (2) 
0.4705

>  <Bond_Score>  (2) 
0.4686

>  <Rank>  (2) 
1

>  <Subtype>  (2) 
REACTION

>  <Subtype_Scores>  (2) 
[REACTION] SOM_score: 0.4686, Reaction_score: 0.4705, Score: 0.4696


$$$$

     RDKit          2D

 30 32  0  0  0  0  0  0  0  0999 V2000
    5.7760    0.0000    0.0000 C   0  0  0  0  0  0  0  0  0 17  0  0
    6.5260    1.2990    0.0000 O   0  0  0  0  0  0  0  0  0 33  0  0
    4.2760    0.0000    0.0000 C   0  0  0  0  0  0  0  0  0 18  0  0
    6.5260   -1.2990    0.0000 H   0  0  0  0  0  0  0  0  0  0  0  0
    2.7760    0.0000    0.0000 C   0  0  0  0  0  0  0  0  0 19  0  0
    4.2760    1.5000    0.0000 H   0  0  0  0  0  0  0  0  0  0  0  0
    4.2760   -1.5000    0.0000 H   0  0  0  0  0  0  0  0  0  0  0  0
    1.2760    0.0000    0.0000 C   0  0  0  0  0  0  0  0  0 20  0  0
    2.7760    1.5000    0.0000 H   0  0  0  0  0  0  0  0  0  0  0  0
    2.7760   -1.5000    0.0000 H   0  0  0  0  0  0  0  0  0  0  0  0
    0.3943    1.2135    0.0000 C   0  0  0  0  0  0  0  0  0 21  0  0
    0.3943   -1.2135    0.0000 C   0  0  0  0  0  0  0  0  0 27  0  0
   -1.0323    0.7500    0.0000 N   0  0  0  0  0  0  0  0  0  4  0  0
    0.8578    2.6401    0.0000 H   0  0  0  0  0  0  0  0  0  0  0  0
    0.7062   -2.6807    0.0000 C   0  0  0  0  0  0  0  0  0 26  0  0
   -1.0323   -0.7500    0.0000 C   0  0  0  0  0  0  0  0  0 22  0  0
   -2.2458    1.6317    0.0000 H   0  0  0  0  0  0  0  0  0  0  0  0
   -0.4086   -3.6844    0.0000 C   0  0  0  0  0  0  0  0  0 25  0  0
    2.1328   -3.1443    0.0000 H   0  0  0  0  0  0  0  0  0  0  0  0
   -2.1470   -1.7537    0.0000 C   0  0  0  0  0  0  0  0  0 23  0  0
   -1.8351   -3.2209    0.0000 C   0  0  0  0  0  0  0  0  0 24  0  0
   -0.0967   -5.1517    0.0000 N   0  0  0  0  0  0  0  0  0  5  0  0
   -3.5736   -1.2902    0.0000 H   0  0  0  0  0  0  0  0  0  0  0  0
   -2.9499   -4.2246    0.0000 H   0  0  0  0  0  0  0  0  0  0  0  0
    1.2736   -5.7618    0.0000 C   0  0  0  0  0  0  0  0  0 28  0  0
   -1.1004   -6.2664    0.0000 C   0  0  0  0  0  0  0  0  0 29  0  0
    1.1168   -7.2536    0.0000 N   0  0  0  0  0  0  0  0  0  6  0  0
    2.5727   -5.0118    0.0000 H   0  0  0  0  0  0  0  0  0  0  0  0
   -0.3504   -7.5654    0.0000 N   0  0  0  0  0  0  0  0  0  7  0  0
   -2.5922   -6.1096    0.0000 H   0  0  0  0  0  0  0  0  0  0  0  0
  1  2  2  0
  1  3  1  0
  1  4  1  0
  3  5  1  0
  3  6  1  0
  3  7  1  0
  5  8  1  0
  5  9  1  0
  5 10  1  0
  8 11  2  0
 12  8  1  0
 11 13  1  0
 11 14  1  0
 15 12  2  0
 12 16  1  0
 13 16  1  0
 13 17  1  0
 18 15  1  0
 15 19  1  0
 16 20  2  0
 21 18  2  0
 18 22  1  0
 20 21  1  0
 20 23  1  0
 21 24  1  0
 22 25  1  0
 26 22  1  0
 25 27  2  0
 25 28  1  0
 29 26  2  0
 26 30  1  0
 27 29  1  0
M  END
>  <SMILES>  (3) 
O=CCCc1c[nH]c2ccc(-n3cnnc3)cc12

>  <Molecular Weight>  (3) 
240.3

>  <Substrate_ID>  (3) 
MOL0087

>  <Substrate>  (3) 


>  <Substrate_SMILES>  (3) 
Fc1cccc(CCN2CCN(CCCc3c[nH]c4ccc(-n5cnnc5)cc34)CC2)c1

>  <Reaction>  (3) 
N-dealkylation_(hetero_ring)

>  <Score>  (3) 
0.4696

>  <Reaction_Score>  (3) 
0.4705

>  <Bond_Score>  (3) 
0.4686

>  <Rank>  (3) 
1

>  <Subtype>  (3) 
REACTION

>  <Subtype_Scores>  (3) 
[REACTION] SOM_score: 0.4686, Reaction_score: 0.4705, Score: 0.4696


$$$$

     RDKit          2D

 45 48  0  0  0  0  0  0  0  0999 V2000
    3.1755    9.7730    0.0000 N   0  0  0  0  0  0  0  0  0  2  0  0
    4.1791    8.6583    0.0000 C   0  0  0  0  0  0  0  0  0 15  0  0
    1.7082    9.4612    0.0000 C   0  0  0  0  0  0  0  0  0 31  0  0
    3.7156    7.2317    0.0000 C   0  0  0  0  0  0  0  0  0 16  0  0
    5.1026    9.8403    0.0000 H   0  0  0  0  0  0  0  0  0  0  0  0
    5.5036    7.9541    0.0000 H   0  0  0  0  0  0  0  0  0  0  0  0
    1.2447    8.0346    0.0000 C   0  0  0  0  0  0  0  0  0 30  0  0
    0.2228    9.6699    0.0000 H   0  0  0  0  0  0  0  0  0  0  0  0
    1.6559   10.9603    0.0000 H   0  0  0  0  0  0  0  0  0  0  0  0
    2.2484    6.9199    0.0000 N   0  0  0  0  0  0  0  0  0  3  0  0
    5.2010    7.0230    0.0000 H   0  0  0  0  0  0  0  0  0  0  0  0
    3.9503    5.7502    0.0000 H   0  0  0  0  0  0  0  0  0  0  0  0
    0.1840    6.9740    0.0000 H   0  0  0  0  0  0  0  0  0  0  0  0
   -0.0797    8.7388    0.0000 H   0  0  0  0  0  0  0  0  0  0  0  0
    1.7849    5.4933    0.0000 C   0  0  0  0  0  0  0  0  0 17  0  0
    1.3213    4.0667    0.0000 C   0  0  0  0  0  0  0  0  0 18  0  0
    3.1443    4.8593    0.0000 H   0  0  0  0  0  0  0  0  0  0  0  0
    0.3124    5.7795    0.0000 H   0  0  0  0  0  0  0  0  0  0  0  0
    0.8578    2.6401    0.0000 C   0  0  0  0  0  0  0  0  0 19  0  0
    2.7479    3.6032    0.0000 H   0  0  0  0  0  0  0  0  0  0  0  0
   -0.1052    4.5302    0.0000 H   0  0  0  0  0  0  0  0  0  0  0  0
    0.3943    1.2135    0.0000 C   0  0  0  0  0  0  0  0  0 20  0  0
    2.2844    2.1766    0.0000 H   0  0  0  0  0  0  0  0  0  0  0  0
   -0.5688    3.1036    0.0000 H   0  0  0  0  0  0  0  0  0  0  0  0
    1.2760    0.0000    0.0000 C   0  0  0  0  0  0  0  0  0 21  0  0
   -1.0323    0.7500    0.0000 C   0  0  0  0  0  0  0  0  0 27  0  0
    0.3943   -1.2135    0.0000 N   0  0  0  0  0  0  0  0  0  4  0  0
    2.7760    0.0000    0.0000 H   0  0  0  0  0  0  0  0  0  0  0  0
   -2.3313    1.5000    0.0000 C   0  0  0  0  0  0  0  0  0 26  0  0
   -1.0323   -0.7500    0.0000 C   0  0  0  0  0  0  0  0  0 22  0  0
    0.8578   -2.6401    0.0000 H   0  0  0  0  0  0  0  0  0  0  0  0
   -3.6304    0.7500    0.0000 C   0  0  0  0  0  0  0  0  0 25  0  0
   -2.3313    3.0000    0.0000 H   0  0  0  0  0  0  0  0  0  0  0  0
   -2.3313   -1.5000    0.0000 C   0  0  0  0  0  0  0  0  0 23  0  0
   -3.6304   -0.7500    0.0000 C   0  0  0  0  0  0  0  0  0 24  0  0
   -4.9294    1.5000    0.0000 N   0  0  0  0  0  0  0  0  0  5  0  0
   -2.3313   -3.0000    0.0000 H   0  0  0  0  0  0  0  0  0  0  0  0
   -4.9294   -1.5000    0.0000 H   0  0  0  0  0  0  0  0  0  0  0  0
   -6.2997    0.8899    0.0000 C   0  0  0  0  0  0  0  0  0 28  0  0
   -5.0862    2.9918    0.0000 C   0  0  0  0  0  0  0  0  0 29  0  0
   -7.3034    2.0046    0.0000 N   0  0  0  0  0  0  0  0  0  6  0  0
   -6.6116   -0.5773    0.0000 H   0  0  0  0  0  0  0  0  0  0  0  0
   -6.5534    3.3037    0.0000 N   0  0  0  0  0  0  0  0  0  7  0  0
   -3.9715    3.9955    0.0000 H   0  0  0  0  0  0  0  0  0  0  0  0
    3.6390   11.1996    0.0000 H   0  0  0  0  0  0  0  0  0  0  0  0
  1  2  1  0
  3  1  1  0
  2  4  1  0
  2  5  1  0
  2  6  1  0
  7  3  1  0
  3  8  1  0
  3  9  1  0
  4 10  1  0
  4 11  1  0
  4 12  1  0
 10  7  1  0
  7 13  1  0
  7 14  1  0
 10 15  1  0
 15 16  1  0
 15 17  1  0
 15 18  1  0
 16 19  1  0
 16 20  1  0
 16 21  1  0
 19 22  1  0
 19 23  1  0
 19 24  1  0
 22 25  2  0
 26 22  1  0
 25 27  1  0
 25 28  1  0
 29 26  2  0
 26 30  1  0
 27 30  1  0
 27 31  1  0
 32 29  1  0
 29 33  1  0
 30 34  2  0
 35 32  2  0
 32 36  1  0
 34 35  1  0
 34 37  1  0
 35 38  1  0
 36 39  1  0
 40 36  1  0
 39 41  2  0
 39 42  1  0
 43 40  2  0
 40 44  1  0
 41 43  1  0
  1 45  1  0
M  END
>  <SMILES>  (4) 
c1cc2[nH]cc(CCCN3CCNCC3)c2cc1-n1cnnc1

>  <Molecular Weight>  (4) 
310.4

>  <Substrate_ID>  (4) 
MOL0087

>  <Substrate>  (4) 


>  <Substrate_SMILES>  (4) 
Fc1cccc(CCN2CCN(CCCc3c[nH]c4ccc(-n5cnnc5)cc34)CC2)c1

>  <Reaction>  (4) 
N-dealkylation_(tertiaryN-CH2-alkyl)

>  <Score>  (4) 
0.461

>  <Reaction_Score>  (4) 
0.4613

>  <Bond_Score>  (4) 
0.4606

>  <Rank>  (4) 
2

>  <Subtype>  (4) 
REACTION

>  <Subtype_Scores>  (4) 
[REACTION] SOM_score: 0.4606, Reaction_score: 0.4613, Score: 0.4610


$$$$

     RDKit          2D

 19 19  0  0  0  0  0  0  0  0999 V2000
    6.0000    0.0000    0.0000 O   0  0  0  0  0  0  0  0  0 33  0  0
    4.5000    0.0000    0.0000 C   0  0  0  0  0  0  0  0  0 14  0  0
    3.0000    0.0000    0.0000 C   0  0  0  0  0  0  0  0  0 13  0  0
    4.5000    1.5000    0.0000 H   0  0  0  0  0  0  0  0  0  0  0  0
    4.5000   -1.5000    0.0000 H   0  0  0  0  0  0  0  0  0  0  0  0
    1.5000    0.0000    0.0000 C   0  0  0  0  0  0  0  0  0 12  0  0
    3.0000   -1.5000    0.0000 H   0  0  0  0  0  0  0  0  0  0  0  0
    3.0000    1.5000    0.0000 H   0  0  0  0  0  0  0  0  0  0  0  0
    0.7500   -1.2990    0.0000 C   0  0  0  0  0  0  0  0  0 11  0  0
    0.7500    1.2990    0.0000 C   0  0  0  0  0  0  0  0  0 32  0  0
   -0.7500   -1.2990    0.0000 C   0  0  0  0  0  0  0  0  0 10  0  0
    1.5000   -2.5981    0.0000 H   0  0  0  0  0  0  0  0  0  0  0  0
   -0.7500    1.2990    0.0000 C   0  0  0  0  0  0  0  0  0  8  0  0
    1.5000    2.5981    0.0000 H   0  0  0  0  0  0  0  0  0  0  0  0
   -1.5000    0.0000    0.0000 C   0  0  0  0  0  0  0  0  0  9  0  0
   -1.5000   -2.5981    0.0000 H   0  0  0  0  0  0  0  0  0  0  0  0
   -1.5000    2.5981    0.0000 F   0  0  0  0  0  0  0  0  0  1  0  0
   -3.0000    0.0000    0.0000 H   0  0  0  0  0  0  0  0  0  0  0  0
    6.7500   -1.2990    0.0000 H   0  0  0  0  0  0  0  0  0  0  0  0
  1  2  1  0
  3  2  1  0
  2  4  1  0
  2  5  1  0
  6  3  1  0
  3  7  1  0
  3  8  1  0
  9  6  2  0
  6 10  1  0
 11  9  1  0
  9 12  1  0
 10 13  2  0
 10 14  1  0
 15 11  2  0
 11 16  1  0
 17 13  1  0
 13 15  1  0
 15 18  1  0
  1 19  1  0
M  END
>  <SMILES>  (5) 
OCCc1cccc(F)c1

>  <Molecular Weight>  (5) 
140.2

>  <Substrate_ID>  (5) 
MOL0087

>  <Substrate>  (5) 


>  <Substrate_SMILES>  (5) 
Fc1cccc(CCN2CCN(CCCc3c[nH]c4ccc(-n5cnnc5)cc34)CC2)c1

>  <Reaction>  (5) 
N-dealkylation_(tertiaryN-CH2-alkyl)

>  <Score>  (5) 
0.461

>  <Reaction_Score>  (5) 
0.4613

>  <Bond_Score>  (5) 
0.4606

>  <Rank>  (5) 
2

>  <Subtype>  (5) 
REACTION

>  <Subtype_Scores>  (5) 
[REACTION] SOM_score: 0.4606, Reaction_score: 0.4613, Score: 0.4610


$$$$

     RDKit          2D

 17 17  0  0  0  0  0  0  0  0999 V2000
    4.5000    0.0000    0.0000 C   0  0  0  0  0  0  0  0  0 14  0  0
    5.2500    1.2990    0.0000 O   0  0  0  0  0  0  0  0  0 33  0  0
    3.0000    0.0000    0.0000 C   0  0  0  0  0  0  0  0  0 13  0  0
    5.2500   -1.2990    0.0000 H   0  0  0  0  0  0  0  0  0  0  0  0
    1.5000    0.0000    0.0000 C   0  0  0  0  0  0  0  0  0 12  0  0
    3.0000    1.5000    0.0000 H   0  0  0  0  0  0  0  0  0  0  0  0
    3.0000   -1.5000    0.0000 H   0  0  0  0  0  0  0  0  0  0  0  0
    0.7500   -1.2990    0.0000 C   0  0  0  0  0  0  0  0  0 11  0  0
    0.7500    1.2990    0.0000 C   0  0  0  0  0  0  0  0  0 32  0  0
   -0.7500   -1.2990    0.0000 C   0  0  0  0  0  0  0  0  0 10  0  0
    1.5000   -2.5981    0.0000 H   0  0  0  0  0  0  0  0  0  0  0  0
   -0.7500    1.2990    0.0000 C   0  0  0  0  0  0  0  0  0  8  0  0
    1.5000    2.5981    0.0000 H   0  0  0  0  0  0  0  0  0  0  0  0
   -1.5000    0.0000    0.0000 C   0  0  0  0  0  0  0  0  0  9  0  0
   -1.5000   -2.5981    0.0000 H   0  0  0  0  0  0  0  0  0  0  0  0
   -1.5000    2.5981    0.0000 F   0  0  0  0  0  0  0  0  0  1  0  0
   -3.0000    0.0000    0.0000 H   0  0  0  0  0  0  0  0  0  0  0  0
  1  2  2  0
  3  1  1  0
  1  4  1  0
  5  3  1  0
  3  6  1  0
  3  7  1  0
  8  5  2  0
  5  9  1  0
 10  8  1  0
  8 11  1  0
  9 12  2  0
  9 13  1  0
 14 10  2  0
 10 15  1  0
 16 12  1  0
 12 14  1  0
 14 17  1  0
M  END
>  <SMILES>  (6) 
O=CCc1cccc(F)c1

>  <Molecular Weight>  (6) 
138.1

>  <Substrate_ID>  (6) 
MOL0087

>  <Substrate>  (6) 


>  <Substrate_SMILES>  (6) 
Fc1cccc(CCN2CCN(CCCc3c[nH]c4ccc(-n5cnnc5)cc34)CC2)c1

>  <Reaction>  (6) 
N-dealkylation_(hetero_ring)

>  <Score>  (6) 
0.461

>  <Reaction_Score>  (6) 
0.4613

>  <Bond_Score>  (6) 
0.4606

>  <Rank>  (6) 
2

>  <Subtype>  (6) 
REACTION

>  <Subtype_Scores>  (6) 
[REACTION] SOM_score: 0.4606, Reaction_score: 0.4613, Score: 0.4610


$$$$

     RDKit          2D

 62 66  0  0  0  0  0  0  0  0999 V2000
    0.3943    1.2135    0.0000 C   0  0  0  0  0  0  0  0  0 20  0  0
    0.8578    2.6401    0.0000 C   0  0  0  0  0  0  0  0  0 19  0  0
   -0.5688    3.1036    0.0000 O   0  0  0  0  0  0  0  0  0 33  0  0
    1.3213    4.0667    0.0000 C   0  0  0  0  0  0  0  0  0 18  0  0
   -1.0323    0.7500    0.0000 C   0  0  0  0  0  0  0  0  0 21  0  0
    1.2760   -0.0000    0.0000 C   0  0  0  0  0  0  0  0  0 27  0  0
   -1.0323   -0.7500    0.0000 N   0  0  0  0  0  0  0  0  0  4  0  0
   -2.2458    1.6317    0.0000 H   0  0  0  0  0  0  0  0  0  0  0  0
    2.7678   -0.1568    0.0000 C   0  0  0  0  0  0  0  0  0 26  0  0
    0.3943   -1.2135    0.0000 C   0  0  0  0  0  0  0  0  0 22  0  0
   -2.2458   -1.6317    0.0000 H   0  0  0  0  0  0  0  0  0  0  0  0
    3.3779   -1.5271    0.0000 C   0  0  0  0  0  0  0  0  0 25  0  0
    3.6494    1.0567    0.0000 H   0  0  0  0  0  0  0  0  0  0  0  0
    1.0044   -2.5838    0.0000 C   0  0  0  0  0  0  0  0  0 23  0  0
    2.4962   -2.7406    0.0000 C   0  0  0  0  0  0  0  0  0 24  0  0
    4.8696   -1.6839    0.0000 N   0  0  0  0  0  0  0  0  0  5  0  0
    0.1227   -3.7974    0.0000 H   0  0  0  0  0  0  0  0  0  0  0  0
    3.1063   -4.1110    0.0000 H   0  0  0  0  0  0  0  0  0  0  0  0
    5.6196   -2.9829    0.0000 C   0  0  0  0  0  0  0  0  0 28  0  0
    5.8733   -0.5692    0.0000 C   0  0  0  0  0  0  0  0  0 29  0  0
    7.0869   -2.6711    0.0000 N   0  0  0  0  0  0  0  0  0  6  0  0
    5.0095   -4.3533    0.0000 H   0  0  0  0  0  0  0  0  0  0  0  0
    7.2437   -1.1793    0.0000 N   0  0  0  0  0  0  0  0  0  7  0  0
    5.5615    0.8980    0.0000 H   0  0  0  0  0  0  0  0  0  0  0  0
    2.2844    2.1766    0.0000 H   0  0  0  0  0  0  0  0  0  0  0  0
    1.7849    5.4933    0.0000 C   0  0  0  0  0  0  0  0  0 17  0  0
    2.7479    3.6032    0.0000 H   0  0  0  0  0  0  0  0  0  0  0  0
   -0.0381    4.7007    0.0000 H   0  0  0  0  0  0  0  0  0  0  0  0
    2.2484    6.9199    0.0000 N   0  0  0  0  0  0  0  0  0  3  0  0
    0.3124    5.7795    0.0000 H   0  0  0  0  0  0  0  0  0  0  0  0
    3.1443    4.8593    0.0000 H   0  0  0  0  0  0  0  0  0  0  0  0
    3.7156    7.2317    0.0000 C   0  0  0  0  0  0  0  0  0 16  0  0
    1.2447    8.0346    0.0000 C   0  0  0  0  0  0  0  0  0 30  0  0
    4.1791    8.6583    0.0000 C   0  0  0  0  0  0  0  0  0 15  0  0
    5.2010    7.0230    0.0000 H   0  0  0  0  0  0  0  0  0  0  0  0
    3.9503    5.7502    0.0000 H   0  0  0  0  0  0  0  0  0  0  0  0
    1.7082    9.4612    0.0000 C   0  0  0  0  0  0  0  0  0 31  0  0
    0.1840    6.9740    0.0000 H   0  0  0  0  0  0  0  0  0  0  0  0
   -0.0797    8.7388    0.0000 H   0  0  0  0  0  0  0  0  0  0  0  0
    3.1755    9.7730    0.0000 N   0  0  0  0  0  0  0  0  0  2  0  0
    5.2398    9.7189    0.0000 H   0  0  0  0  0  0  0  0  0  0  0  0
    5.5036    7.9541    0.0000 H   0  0  0  0  0  0  0  0  0  0  0  0
    0.2228    9.6699    0.0000 H   0  0  0  0  0  0  0  0  0  0  0  0
    1.4735   10.9427    0.0000 H   0  0  0  0  0  0  0  0  0  0  0  0
    3.6390   11.1996    0.0000 C   0  0  0  0  0  0  0  0  0 14  0  0
    4.1025   12.6262    0.0000 C   0  0  0  0  0  0  0  0  0 13  0  0
    2.2795   11.8336    0.0000 H   0  0  0  0  0  0  0  0  0  0  0  0
    5.1114   10.9134    0.0000 H   0  0  0  0  0  0  0  0  0  0  0  0
    4.5660   14.0528    0.0000 C   0  0  0  0  0  0  0  0  0 12  0  0
    5.5291   12.1627    0.0000 H   0  0  0  0  0  0  0  0  0  0  0  0
    2.6759   13.0897    0.0000 H   0  0  0  0  0  0  0  0  0  0  0  0
    6.0332   14.3647    0.0000 C   0  0  0  0  0  0  0  0  0 11  0  0
    3.5623   15.1675    0.0000 C   0  0  0  0  0  0  0  0  0 32  0  0
    6.4968   15.7912    0.0000 C   0  0  0  0  0  0  0  0  0 10  0  0
    7.0369   13.2499    0.0000 H   0  0  0  0  0  0  0  0  0  0  0  0
    4.0259   16.5941    0.0000 C   0  0  0  0  0  0  0  0  0  8  0  0
    2.0951   14.8556    0.0000 H   0  0  0  0  0  0  0  0  0  0  0  0
    5.4931   16.9060    0.0000 C   0  0  0  0  0  0  0  0  0  9  0  0
    7.9640   16.1031    0.0000 H   0  0  0  0  0  0  0  0  0  0  0  0
    3.0222   17.7088    0.0000 F   0  0  0  0  0  0  0  0  0  1  0  0
    5.9566   18.3325    0.0000 H   0  0  0  0  0  0  0  0  0  0  0  0
   -1.0572    4.5219    0.0000 H   0  0  0  0  0  0  0  0  0  0  0  0
  1  2  1  0
  2  3  1  0
  2  4  1  0
  1  5  2  0
  6  1  1  0
  5  7  1  0
  5  8  1  0
  9  6  2  0
  6 10  1  0
  7 10  1  0
  7 11  1  0
 12  9  1  0
  9 13  1  0
 10 14  2  0
 15 12  2  0
 12 16  1  0
 14 15  1  0
 14 17  1  0
 15 18  1  0
 16 19  1  0
 20 16  1  0
 19 21  2  0
 19 22  1  0
 23 20  2  0
 20 24  1  0
 21 23  1  0
  2 25  1  0
 26  4  1  0
  4 27  1  0
  4 28  1  0
 29 26  1  0
 26 30  1  0
 26 31  1  0
 32 29  1  0
 29 33  1  0
 34 32  1  0
 32 35  1  0
 32 36  1  0
 33 37  1  0
 33 38  1  0
 33 39  1  0
 40 34  1  0
 34 41  1  0
 34 42  1  0
 37 40  1  0
 37 43  1  0
 37 44  1  0
 45 40  1  0
 46 45  1  0
 45 47  1  0
 45 48  1  0
 49 46  1  0
 46 50  1  0
 46 51  1  0
 52 49  2  0
 49 53  1  0
 54 52  1  0
 52 55  1  0
 53 56  2  0
 53 57  1  0
 58 54  2  0
 54 59  1  0
 60 56  1  0
 56 58  1  0
 58 61  1  0
  3 62  1  0
M  END
>  <SMILES>  (7) 
OC(CCN1CCN(CCc2cccc(F)c2)CC1)c1c[nH]c2ccc(-n3cnnc3)cc12

>  <Molecular Weight>  (7) 
448.5

>  <Substrate_ID>  (7) 
MOL0087

>  <Substrate>  (7) 


>  <Substrate_SMILES>  (7) 
Fc1cccc(CCN2CCN(CCCc3c[nH]c4ccc(-n5cnnc5)cc34)CC2)c1

>  <Reaction>  (7) 
benzylic_hydroxylation_(c-CH2-CR),aliphatic hydroxylation

>  <Score>  (7) 
0.1918

>  <Reaction_Score>  (7) 
0.1944

>  <Bond_Score>  (7) 
0.1893

>  <Rank>  (7) 
3

>  <Subtype>  (7) 
REACTION

>  <Subtype_Scores>  (7) 
[REACTION] SOM_score: 0.1893, Reaction_score: 0.1944, Score: 0.1918


$$$$

     RDKit          2D

 62 66  0  0  0  0  0  0  0  0999 V2000
    4.5660   14.0528    0.0000 C   0  0  0  0  0  0  0  0  0 12  0  0
    4.1025   12.6262    0.0000 C   0  0  0  0  0  0  0  0  0 13  0  0
    5.5291   12.1627    0.0000 O   0  0  0  0  0  0  0  0  0 33  0  0
    3.6390   11.1996    0.0000 C   0  0  0  0  0  0  0  0  0 14  0  0
    6.0332   14.3647    0.0000 C   0  0  0  0  0  0  0  0  0 11  0  0
    3.5623   15.1675    0.0000 C   0  0  0  0  0  0  0  0  0 32  0  0
    6.4968   15.7912    0.0000 C   0  0  0  0  0  0  0  0  0 10  0  0
    6.8585   13.6473    0.0000 H   0  0  0  0  0  0  0  0  0  0  0  0
    4.0259   16.5941    0.0000 C   0  0  0  0  0  0  0  0  0  8  0  0
    2.0951   14.8556    0.0000 H   0  0  0  0  0  0  0  0  0  0  0  0
    5.4931   16.9060    0.0000 C   0  0  0  0  0  0  0  0  0  9  0  0
    7.9640   16.1031    0.0000 H   0  0  0  0  0  0  0  0  0  0  0  0
    3.0222   17.7088    0.0000 F   0  0  0  0  0  0  0  0  0  1  0  0
    5.9566   18.3325    0.0000 H   0  0  0  0  0  0  0  0  0  0  0  0
    2.6759   13.0897    0.0000 H   0  0  0  0  0  0  0  0  0  0  0  0
    3.1755    9.7730    0.0000 N   0  0  0  0  0  0  0  0  0  2  0  0
    2.2795   11.8336    0.0000 H   0  0  0  0  0  0  0  0  0  0  0  0
    5.1114   10.9134    0.0000 H   0  0  0  0  0  0  0  0  0  0  0  0
    1.7082    9.4612    0.0000 C   0  0  0  0  0  0  0  0  0 15  0  0
    4.1791    8.6583    0.0000 C   0  0  0  0  0  0  0  0  0 31  0  0
    1.2447    8.0346    0.0000 C   0  0  0  0  0  0  0  0  0 16  0  0
    0.2228    9.6699    0.0000 H   0  0  0  0  0  0  0  0  0  0  0  0
    1.4735   10.9427    0.0000 H   0  0  0  0  0  0  0  0  0  0  0  0
    3.7156    7.2317    0.0000 C   0  0  0  0  0  0  0  0  0 30  0  0
    5.2398    9.7189    0.0000 H   0  0  0  0  0  0  0  0  0  0  0  0
    5.5036    7.9541    0.0000 H   0  0  0  0  0  0  0  0  0  0  0  0
    2.2484    6.9199    0.0000 N   0  0  0  0  0  0  0  0  0  3  0  0
    0.1840    6.9740    0.0000 H   0  0  0  0  0  0  0  0  0  0  0  0
   -0.0797    8.7388    0.0000 H   0  0  0  0  0  0  0  0  0  0  0  0
    5.2010    7.0230    0.0000 H   0  0  0  0  0  0  0  0  0  0  0  0
    3.9503    5.7502    0.0000 H   0  0  0  0  0  0  0  0  0  0  0  0
    1.7849    5.4933    0.0000 C   0  0  0  0  0  0  0  0  0 17  0  0
    1.3213    4.0667    0.0000 C   0  0  0  0  0  0  0  0  0 18  0  0
    3.1443    4.8593    0.0000 H   0  0  0  0  0  0  0  0  0  0  0  0
    0.3124    5.7795    0.0000 H   0  0  0  0  0  0  0  0  0  0  0  0
    0.8578    2.6401    0.0000 C   0  0  0  0  0  0  0  0  0 19  0  0
    2.7479    3.6032    0.0000 H   0  0  0  0  0  0  0  0  0  0  0  0
   -0.1052    4.5302    0.0000 H   0  0  0  0  0  0  0  0  0  0  0  0
    0.3943    1.2135    0.0000 C   0  0  0  0  0  0  0  0  0 20  0  0
    2.2844    2.1766    0.0000 H   0  0  0  0  0  0  0  0  0  0  0  0
   -0.5688    3.1036    0.0000 H   0  0  0  0  0  0  0  0  0  0  0  0
    1.2760    0.0000    0.0000 C   0  0  0  0  0  0  0  0  0 21  0  0
   -1.0323    0.7500    0.0000 C   0  0  0  0  0  0  0  0  0 27  0  0
    0.3943   -1.2135    0.0000 N   0  0  0  0  0  0  0  0  0  4  0  0
    2.7760    0.0000    0.0000 H   0  0  0  0  0  0  0  0  0  0  0  0
   -2.3313    1.5000    0.0000 C   0  0  0  0  0  0  0  0  0 26  0  0
   -1.0323   -0.7500    0.0000 C   0  0  0  0  0  0  0  0  0 22  0  0
    0.8578   -2.6401    0.0000 H   0  0  0  0  0  0  0  0  0  0  0  0
   -3.6304    0.7500    0.0000 C   0  0  0  0  0  0  0  0  0 25  0  0
   -2.3313    3.0000    0.0000 H   0  0  0  0  0  0  0  0  0  0  0  0
   -2.3313   -1.5000    0.0000 C   0  0  0  0  0  0  0  0  0 23  0  0
   -3.6304   -0.7500    0.0000 C   0  0  0  0  0  0  0  0  0 24  0  0
   -4.9294    1.5000    0.0000 N   0  0  0  0  0  0  0  0  0  5  0  0
   -2.3313   -3.0000    0.0000 H   0  0  0  0  0  0  0  0  0  0  0  0
   -4.9294   -1.5000    0.0000 H   0  0  0  0  0  0  0  0  0  0  0  0
   -6.2997    0.8899    0.0000 C   0  0  0  0  0  0  0  0  0 28  0  0
   -5.0862    2.9918    0.0000 C   0  0  0  0  0  0  0  0  0 29  0  0
   -7.3034    2.0046    0.0000 N   0  0  0  0  0  0  0  0  0  6  0  0
   -6.6116   -0.5773    0.0000 H   0  0  0  0  0  0  0  0  0  0  0  0
   -6.5534    3.3037    0.0000 N   0  0  0  0  0  0  0  0  0  7  0  0
   -3.9715    3.9955    0.0000 H   0  0  0  0  0  0  0  0  0  0  0  0
    6.4248   12.7899    0.0000 H   0  0  0  0  0  0  0  0  0  0  0  0
  1  2  1  0
  2  3  1  0
  2  4  1  0
  5  1  2  0
  1  6  1  0
  7  5  1  0
  5  8  1  0
  6  9  2  0
  6 10  1  0
 11  7  2  0
  7 12  1  0
 13  9  1  0
  9 11  1  0
 11 14  1  0
  2 15  1  0
  4 16  1  0
  4 17  1  0
  4 18  1  0
 16 19  1  0
 20 16  1  0
 19 21  1  0
 19 22  1  0
 19 23  1  0
 24 20  1  0
 20 25  1  0
 20 26  1  0
 21 27  1  0
 21 28  1  0
 21 29  1  0
 27 24  1  0
 24 30  1  0
 24 31  1  0
 27 32  1  0
 32 33  1  0
 32 34  1  0
 32 35  1  0
 33 36  1  0
 33 37  1  0
 33 38  1  0
 36 39  1  0
 36 40  1  0
 36 41  1  0
 39 42  2  0
 43 39  1  0
 42 44  1  0
 42 45  1  0
 46 43  2  0
 43 47  1  0
 44 47  1  0
 44 48  1  0
 49 46  1  0
 46 50  1  0
 47 51  2  0
 52 49  2  0
 49 53  1  0
 51 52  1  0
 51 54  1  0
 52 55  1  0
 53 56  1  0
 57 53  1  0
 56 58  2  0
 56 59  1  0
 60 57  2  0
 57 61  1  0
 58 60  1  0
  3 62  1  0
M  END
>  <SMILES>  (8) 
OC(CN1CCN(CCCc2c[nH]c3ccc(-n4cnnc4)cc23)CC1)c1cccc(F)c1

>  <Molecular Weight>  (8) 
448.5

>  <Substrate_ID>  (8) 
MOL0087

>  <Substrate>  (8) 


>  <Substrate_SMILES>  (8) 
Fc1cccc(CCN2CCN(CCCc3c[nH]c4ccc(-n5cnnc5)cc34)CC2)c1

>  <Reaction>  (8) 
benzylic_hydroxylation_(c-CH2-CR),aliphatic hydroxylation

>  <Score>  (8) 
0.1497

>  <Reaction_Score>  (8) 
0.1316

>  <Bond_Score>  (8) 
0.1703

>  <Rank>  (8) 
4

>  <Subtype>  (8) 
REACTION

>  <Subtype_Scores>  (8) 
[REACTION] SOM_score: 0.1703, Reaction_score: 0.1316, Score: 0.1497


$$$$

     RDKit          2D

 62 66  0  0  0  0  0  0  0  0999 V2000
    3.5728    6.2157    0.0000 C   0  0  0  0  0  0  0  0  0 16  0  0
    2.2484    6.9199    0.0000 N   0  0  0  0  0  4  0  0  0  3  0  0
    1.7849    5.4933    0.0000 C   0  0  0  0  0  0  0  0  0 17  0  0
    2.1961    8.4190    0.0000 C   0  0  0  0  0  0  0  0  0 30  0  0
    0.7630    7.1286    0.0000 O   0  0  0  0  0  1  0  0  0 33  0  0
    4.8449    7.0105    0.0000 C   0  0  0  0  0  0  0  0  0 15  0  0
    4.5765    5.1009    0.0000 H   0  0  0  0  0  0  0  0  0  0  0  0
    3.1623    5.5323    0.0000 H   0  0  0  0  0  0  0  0  0  0  0  0
    4.7925    8.5096    0.0000 N   0  0  0  0  0  0  0  0  0  2  0  0
    6.3392    7.1412    0.0000 H   0  0  0  0  0  0  0  0  0  0  0  0
    5.4068    5.6198    0.0000 H   0  0  0  0  0  0  0  0  0  0  0  0
    6.0646    9.3045    0.0000 C   0  0  0  0  0  0  0  0  0 14  0  0
    3.4681    9.2138    0.0000 C   0  0  0  0  0  0  0  0  0 31  0  0
    7.3367   10.0994    0.0000 C   0  0  0  0  0  0  0  0  0 13  0  0
    5.4307   10.6640    0.0000 H   0  0  0  0  0  0  0  0  0  0  0  0
    7.0086    8.1388    0.0000 H   0  0  0  0  0  0  0  0  0  0  0  0
    2.4644   10.3285    0.0000 H   0  0  0  0  0  0  0  0  0  0  0  0
    4.2406   10.4996    0.0000 H   0  0  0  0  0  0  0  0  0  0  0  0
    8.6088   10.8943    0.0000 C   0  0  0  0  0  0  0  0  0 12  0  0
    8.1316    8.8273    0.0000 H   0  0  0  0  0  0  0  0  0  0  0  0
    6.5418   11.3715    0.0000 H   0  0  0  0  0  0  0  0  0  0  0  0
    8.5564   12.3933    0.0000 C   0  0  0  0  0  0  0  0  0 11  0  0
    9.9332   10.1901    0.0000 C   0  0  0  0  0  0  0  0  0 32  0  0
    9.8285   13.1882    0.0000 C   0  0  0  0  0  0  0  0  0 10  0  0
    7.2320   13.0976    0.0000 H   0  0  0  0  0  0  0  0  0  0  0  0
   11.2053   10.9849    0.0000 C   0  0  0  0  0  0  0  0  0  8  0  0
    9.9855    8.6910    0.0000 H   0  0  0  0  0  0  0  0  0  0  0  0
   11.1529   12.4840    0.0000 C   0  0  0  0  0  0  0  0  0  9  0  0
    9.7761   14.6873    0.0000 H   0  0  0  0  0  0  0  0  0  0  0  0
   12.5297   10.2807    0.0000 F   0  0  0  0  0  0  0  0  0  1  0  0
   12.4250   13.2789    0.0000 H   0  0  0  0  0  0  0  0  0  0  0  0
    1.3213    4.0667    0.0000 C   0  0  0  0  0  0  0  0  0 18  0  0
    2.5073    5.1564    0.0000 H   0  0  0  0  0  0  0  0  0  0  0  0
    0.3583    5.9568    0.0000 H   0  0  0  0  0  0  0  0  0  0  0  0
    0.8578    2.6401    0.0000 C   0  0  0  0  0  0  0  0  0 19  0  0
    2.7479    3.6032    0.0000 H   0  0  0  0  0  0  0  0  0  0  0  0
   -0.1052    4.5302    0.0000 H   0  0  0  0  0  0  0  0  0  0  0  0
    0.3943    1.2135    0.0000 C   0  0  0  0  0  0  0  0  0 20  0  0
    2.2844    2.1766    0.0000 H   0  0  0  0  0  0  0  0  0  0  0  0
   -0.5688    3.1036    0.0000 H   0  0  0  0  0  0  0  0  0  0  0  0
    1.2760    0.0000    0.0000 C   0  0  0  0  0  0  0  0  0 21  0  0
   -1.0323    0.7500    0.0000 C   0  0  0  0  0  0  0  0  0 27  0  0
    0.3943   -1.2135    0.0000 N   0  0  0  0  0  0  0  0  0  4  0  0
    2.7760    0.0000    0.0000 H   0  0  0  0  0  0  0  0  0  0  0  0
   -2.3313    1.5000    0.0000 C   0  0  0  0  0  0  0  0  0 26  0  0
   -1.0323   -0.7500    0.0000 C   0  0  0  0  0  0  0  0  0 22  0  0
    0.8578   -2.6401    0.0000 H   0  0  0  0  0  0  0  0  0  0  0  0
   -3.6304    0.7500    0.0000 C   0  0  0  0  0  0  0  0  0 25  0  0
   -2.3313    3.0000    0.0000 H   0  0  0  0  0  0  0  0  0  0  0  0
   -2.3313   -1.5000    0.0000 C   0  0  0  0  0  0  0  0  0 23  0  0
   -3.6304   -0.7500    0.0000 C   0  0  0  0  0  0  0  0  0 24  0  0
   -4.9294    1.5000    0.0000 N   0  0  0  0  0  0  0  0  0  5  0  0
   -2.3313   -3.0000    0.0000 H   0  0  0  0  0  0  0  0  0  0  0  0
   -4.9294   -1.5000    0.0000 H   0  0  0  0  0  0  0  0  0  0  0  0
   -6.2997    0.8899    0.0000 C   0  0  0  0  0  0  0  0  0 28  0  0
   -5.0862    2.9918    0.0000 C   0  0  0  0  0  0  0  0  0 29  0  0
   -7.3034    2.0046    0.0000 N   0  0  0  0  0  0  0  0  0  6  0  0
   -6.6116   -0.5773    0.0000 H   0  0  0  0  0  0  0  0  0  0  0  0
   -6.5534    3.3037    0.0000 N   0  0  0  0  0  0  0  0  0  7  0  0
   -3.9715    3.9955    0.0000 H   0  0  0  0  0  0  0  0  0  0  0  0
    0.7288    8.1071    0.0000 H   0  0  0  0  0  0  0  0  0  0  0  0
    1.6341    9.8097    0.0000 H   0  0  0  0  0  0  0  0  0  0  0  0
  1  2  1  0
  2  3  1  0
  2  4  1  0
  2  5  1  0
  6  1  1  0
  1  7  1  0
  1  8  1  0
  9  6  1  0
  6 10  1  0
  6 11  1  0
 12  9  1  0
 13  9  1  0
 14 12  1  0
 12 15  1  0
 12 16  1  0
  4 13  1  0
 13 17  1  0
 13 18  1  0
 19 14  1  0
 14 20  1  0
 14 21  1  0
 22 19  2  0
 19 23  1  0
 24 22  1  0
 22 25  1  0
 23 26  2  0
 23 27  1  0
 28 24  2  0
 24 29  1  0
 30 26  1  0
 26 28  1  0
 28 31  1  0
  3 32  1  0
  3 33  1  0
  3 34  1  0
 32 35  1  0
 32 36  1  0
 32 37  1  0
 35 38  1  0
 35 39  1  0
 35 40  1  0
 38 41  2  0
 42 38  1  0
 41 43  1  0
 41 44  1  0
 45 42  2  0
 42 46  1  0
 43 46  1  0
 43 47  1  0
 48 45  1  0
 45 49  1  0
 46 50  2  0
 51 48  2  0
 48 52  1  0
 50 51  1  0
 50 53  1  0
 51 54  1  0
 52 55  1  0
 56 52  1  0
 55 57  2  0
 55 58  1  0
 59 56  2  0
 56 60  1  0
 57 59  1  0
  4 61  1  0
  4 62  1  0
M  CHG  2   2   1   5  -1
M  END
>  <SMILES>  (9) 
[O-][N+]1(CCCc2c[nH]c3ccc(-n4cnnc4)cc23)CCN(CCc2cccc(F)c2)CC1

>  <Molecular Weight>  (9) 
448.5

>  <Substrate_ID>  (9) 
MOL0087

>  <Substrate>  (9) 


>  <Substrate_SMILES>  (9) 
Fc1cccc(CCN2CCN(CCCc3c[nH]c4ccc(-n5cnnc5)cc34)CC2)c1

>  <Reaction>  (9) 
N-oxidation_(tertiary_N),N-oxidation

>  <Score>  (9) 
0.1304

>  <Reaction_Score>  (9) 
0.0282

>  <Bond_Score>  (9) 
0.6019

>  <Rank>  (9) 
5

>  <Subtype>  (9) 
REACTION

>  <Subtype_Scores>  (9) 
[REACTION] SOM_score: 0.6019, Reaction_score: 0.0282, Score: 0.1304


$$$$
