
     RDKit          2D

 25 24  0  0  0  0  0  0  0  0999 V2000
    0.0000    0.0000    0.0000 C   0  0  0  0  0  0  0  0  0  0  0  0
   -1.2990    0.7500    0.0000 O   0  0  0  0  0  0  0  0  0  0  0  0
    1.2990    0.7500    0.0000 C   0  0  0  0  0  0  0  0  0  0  0  0
   -0.0000   -1.5000    0.0000 H   0  0  0  0  0  0  0  0  0  0  0  0
    2.5981    1.5000    0.0000 C   0  0  0  0  0  0  0  0  0 18  0  0
    2.0490   -0.5490    0.0000 H   0  0  0  0  0  0  0  0  0  0  0  0
    0.5490    2.0490    0.0000 H   0  0  0  0  0  0  0  0  0  0  0  0
    3.8971    2.2500    0.0000 C   0  0  0  0  0  0  0  0  0 20  0  0
    1.8481    2.7990    0.0000 F   0  0  0  0  0  0  0  0  0  4  0  0
    3.3481    0.2010    0.0000 F   0  0  0  0  0  0  0  0  0  5  0  0
    5.1962    3.0000    0.0000 C   0  0  0  0  0  0  0  0  0 22  0  0
    4.6471    0.9510    0.0000 F   0  0  0  0  0  0  0  0  0  8  0  0
    3.1471    3.5490    0.0000 F   0  0  0  0  0  0  0  0  0  9  0  0
    6.4952    3.7500    0.0000 C   0  0  0  0  0  0  0  0  0 21  0  0
    4.4462    4.2990    0.0000 F   0  0  0  0  0  0  0  0  0 12  0  0
    5.9462    1.7010    0.0000 F   0  0  0  0  0  0  0  0  0 13  0  0
    7.7942    4.5000    0.0000 C   0  0  0  0  0  0  0  0  0 19  0  0
    7.2452    2.4510    0.0000 F   0  0  0  0  0  0  0  0  0 10  0  0
    5.7452    5.0490    0.0000 F   0  0  0  0  0  0  0  0  0 11  0  0
    9.0933    5.2500    0.0000 C   0  0  0  0  0  0  0  0  0 17  0  0
    7.0442    5.7990    0.0000 F   0  0  0  0  0  0  0  0  0  6  0  0
    8.5442    3.2010    0.0000 F   0  0  0  0  0  0  0  0  0  7  0  0
   10.3923    6.0000    0.0000 F   0  0  0  0  0  0  0  0  0  1  0  0
    9.8433    3.9510    0.0000 F   0  0  0  0  0  0  0  0  0  2  0  0
    8.3433    6.5490    0.0000 F   0  0  0  0  0  0  0  0  0  3  0  0
  1  2  2  0
  1  3  1  0
  1  4  1  0
  5  3  1  0
  3  6  1  0
  3  7  1  0
  8  5  1  0
  5  9  1  0
  5 10  1  0
 11  8  1  0
  8 12  1  0
  8 13  1  0
 14 11  1  0
 11 15  1  0
 11 16  1  0
 17 14  1  0
 14 18  1  0
 14 19  1  0
 20 17  1  0
 17 21  1  0
 17 22  1  0
 23 20  1  0
 20 24  1  0
 20 25  1  0
M  END
>  <SMILES>  (1) 
O=CCC(F)(F)C(F)(F)C(F)(F)C(F)(F)C(F)(F)C(F)(F)F

>  <Molecular Weight>  (1) 
362.1

>  <Substrate_ID>  (1) 
MOL0040

>  <Substrate>  (1) 


>  <Substrate_SMILES>  (1) 
OCCC(F)(F)C(F)(F)C(F)(F)C(F)(F)C(F)(F)C(F)(F)F

>  <Reaction>  (1) 
oxidation_(geminal_diol_intermediate)

>  <Score>  (1) 
0.2624

>  <Reaction_Score>  (1) 
0.2366

>  <Bond_Score>  (1) 
0.291

>  <Rank>  (1) 
1

>  <Subtype>  (1) 
REACTION

>  <Subtype_Scores>  (1) 
[REACTION] SOM_score: 0.2910, Reaction_score: 0.2366, Score: 0.2624


$$$$

     RDKit          2D

 28 27  0  0  0  0  0  0  0  0999 V2000
    0.0000    0.0000    0.0000 C   0  0  0  0  0  0  0  0  0 16  0  0
    0.0000    1.5000    0.0000 O   0  0  0  0  0  0  0  0  0 23  0  0
   -1.1979    2.4028    0.0000 H   0  0  0  0  0  0  0  0  0  0  0  0
    1.5000    0.0000    0.0000 C   0  0  0  0  0  0  0  0  0 18  0  0
   -1.5000    0.0000    0.0000 C   0  0  0  0  0  0  0  0  0 15  0  0
   -0.0000   -1.5000    0.0000 H   0  0  0  0  0  0  0  0  0  0  0  0
    3.0000    0.0000    0.0000 C   0  0  0  0  0  0  0  0  0 20  0  0
    1.5000   -1.5000    0.0000 F   0  0  0  0  0  0  0  0  0  4  0  0
    1.5000    1.5000    0.0000 F   0  0  0  0  0  0  0  0  0  5  0  0
   -3.0000   -0.0000    0.0000 O   0  0  0  0  0  0  0  0  0 14  0  0
   -1.6828    1.4888    0.0000 H   0  0  0  0  0  0  0  0  0  0  0  0
   -1.5000   -1.5000    0.0000 H   0  0  0  0  0  0  0  0  0  0  0  0
    4.5000    0.0000    0.0000 C   0  0  0  0  0  0  0  0  0 22  0  0
    3.0000    1.5000    0.0000 F   0  0  0  0  0  0  0  0  0  8  0  0
    3.0000   -1.5000    0.0000 F   0  0  0  0  0  0  0  0  0  9  0  0
   -3.7500   -1.2990    0.0000 H   0  0  0  0  0  0  0  0  0  0  0  0
    6.0000    0.0000    0.0000 C   0  0  0  0  0  0  0  0  0 21  0  0
    4.5000   -1.5000    0.0000 F   0  0  0  0  0  0  0  0  0 12  0  0
    4.5000    1.5000    0.0000 F   0  0  0  0  0  0  0  0  0 13  0  0
    7.5000    0.0000    0.0000 C   0  0  0  0  0  0  0  0  0 19  0  0
    6.0000    1.5000    0.0000 F   0  0  0  0  0  0  0  0  0 10  0  0
    6.0000   -1.5000    0.0000 F   0  0  0  0  0  0  0  0  0 11  0  0
    9.0000    0.0000    0.0000 C   0  0  0  0  0  0  0  0  0 17  0  0
    7.5000   -1.5000    0.0000 F   0  0  0  0  0  0  0  0  0  6  0  0
    7.5000    1.5000    0.0000 F   0  0  0  0  0  0  0  0  0  7  0  0
   10.5000    0.0000    0.0000 F   0  0  0  0  0  0  0  0  0  1  0  0
    9.0000    1.5000    0.0000 F   0  0  0  0  0  0  0  0  0  2  0  0
    9.0000   -1.5000    0.0000 F   0  0  0  0  0  0  0  0  0  3  0  0
  1  2  1  0
  2  3  1  0
  4  1  1  0
  1  5  1  0
  1  6  1  0
  7  4  1  0
  4  8  1  0
  4  9  1  0
  5 10  1  0
  5 11  1  0
  5 12  1  0
 13  7  1  0
  7 14  1  0
  7 15  1  0
 10 16  1  0
 17 13  1  0
 13 18  1  0
 13 19  1  0
 20 17  1  0
 17 21  1  0
 17 22  1  0
 23 20  1  0
 20 24  1  0
 20 25  1  0
 26 23  1  0
 23 27  1  0
 23 28  1  0
M  END
>  <SMILES>  (2) 
OCC(O)C(F)(F)C(F)(F)C(F)(F)C(F)(F)C(F)(F)C(F)(F)F

>  <Molecular Weight>  (2) 
380.1

>  <Substrate_ID>  (2) 
MOL0040

>  <Substrate>  (2) 


>  <Substrate_SMILES>  (2) 
OCCC(F)(F)C(F)(F)C(F)(F)C(F)(F)C(F)(F)C(F)(F)F

>  <Reaction>  (2) 
aliphatic hydroxylation

>  <Score>  (2) 
0.1563

>  <Reaction_Score>  (2) 
0.189

>  <Bond_Score>  (2) 
0.1293

>  <Rank>  (2) 
2

>  <Subtype>  (2) 
REACTION

>  <Subtype_Scores>  (2) 
[REACTION] SOM_score: 0.1293, Reaction_score: 0.1890, Score: 0.1563


$$$$
