
     RDKit          2D

 28 28  0  0  0  0  0  0  0  0999 V2000
    1.5000    0.0000    0.0000 C   0  0  0  0  0  0  0  0  0 14  0  0
    3.0000    0.0000    0.0000 O   0  0  0  0  0  0  0  0  0  2  0  0
    0.7500   -1.2990    0.0000 C   0  0  0  0  0  0  0  0  0 15  0  0
    0.7500    1.2990    0.0000 C   0  0  0  0  0  0  0  0  0 10  0  0
   -0.7500   -1.2990    0.0000 C   0  0  0  0  0  0  0  0  0 11  0  0
    1.5000   -2.5981    0.0000 O   0  0  0  0  0  0  0  0  0  3  0  0
   -0.7500    1.2990    0.0000 C   0  0  0  0  0  0  0  0  0 12  0  0
    1.5000    2.5981    0.0000 H   0  0  0  0  0  0  0  0  0  0  0  0
   -1.5000    0.0000    0.0000 C   0  0  0  0  0  0  0  0  0 13  0  0
   -1.5000   -2.5981    0.0000 H   0  0  0  0  0  0  0  0  0  0  0  0
    0.7500   -3.8971    0.0000 C   0  0  0  0  0  0  0  0  0  7  0  0
   -1.5000    2.5981    0.0000 C   0  0  0  0  0  0  0  0  0  9  0  0
   -3.0000    0.0000    0.0000 O   0  0  0  0  0  0  0  0  0  1  0  0
    2.0490   -4.6471    0.0000 H   0  0  0  0  0  0  0  0  0  0  0  0
   -0.5490   -3.1471    0.0000 H   0  0  0  0  0  0  0  0  0  0  0  0
   -0.0000   -5.1962    0.0000 H   0  0  0  0  0  0  0  0  0  0  0  0
   -3.0000    2.5981    0.0000 C   0  0  0  0  0  0  0  0  0  8  0  0
   -0.7500    3.8971    0.0000 H   0  0  0  0  0  0  0  0  0  0  0  0
   -3.7500   -1.2990    0.0000 C   0  0  0  0  0  0  0  0  0  5  0  0
   -3.7500    3.8971    0.0000 C   0  0  0  0  0  0  0  0  0  4  0  0
   -3.7500    1.2990    0.0000 H   0  0  0  0  0  0  0  0  0  0  0  0
   -5.0490   -0.5490    0.0000 H   0  0  0  0  0  0  0  0  0  0  0  0
   -2.4510   -2.0490    0.0000 H   0  0  0  0  0  0  0  0  0  0  0  0
   -4.5000   -2.5981    0.0000 H   0  0  0  0  0  0  0  0  0  0  0  0
   -5.0490    3.1471    0.0000 H   0  0  0  0  0  0  0  0  0  0  0  0
   -2.4510    4.6471    0.0000 H   0  0  0  0  0  0  0  0  0  0  0  0
   -4.5000    5.1962    0.0000 H   0  0  0  0  0  0  0  0  0  0  0  0
    3.7500   -1.2990    0.0000 H   0  0  0  0  0  0  0  0  0  0  0  0
  1  2  1  0
  3  1  2  0
  1  4  1  0
  5  3  1  0
  3  6  1  0
  4  7  2  0
  4  8  1  0
  9  5  2  0
  5 10  1  0
  6 11  1  0
  7 12  1  0
  7  9  1  0
 13  9  1  0
 11 14  1  0
 11 15  1  0
 11 16  1  0
 12 17  2  0
 12 18  1  0
 13 19  1  0
 17 20  1  0
 17 21  1  0
 19 22  1  0
 19 23  1  0
 19 24  1  0
 20 25  1  0
 20 26  1  0
 20 27  1  0
  2 28  1  0
M  END
>  <SMILES>  (1) 
CC=Cc1cc(O)c(OC)cc1OC

>  <Molecular Weight>  (1) 
194.2

>  <Substrate_ID>  (1) 
MOL0038

>  <Substrate>  (1) 


>  <Substrate_SMILES>  (1) 
CC=Cc1cc(OC)c(OC)cc1OC

>  <Reaction>  (1) 
O-demethylation

>  <Score>  (1) 
0.4535

>  <Reaction_Score>  (1) 
0.4411

>  <Bond_Score>  (1) 
0.4662

>  <Rank>  (1) 
1

>  <Subtype>  (1) 
REACTION

>  <Subtype_Scores>  (1) 
[REACTION] SOM_score: 0.4662, Reaction_score: 0.4411, Score: 0.4535


$$$$

     RDKit          2D

 28 28  0  0  0  0  0  0  0  0999 V2000
    1.5000    0.0000    0.0000 C   0  0  0  0  0  0  0  0  0 15  0  0
    3.0000    0.0000    0.0000 O   0  0  0  0  0  0  0  0  0  3  0  0
    0.7500   -1.2990    0.0000 C   0  0  0  0  0  0  0  0  0 11  0  0
    0.7500    1.2990    0.0000 C   0  0  0  0  0  0  0  0  0 14  0  0
   -0.7500   -1.2990    0.0000 C   0  0  0  0  0  0  0  0  0 13  0  0
    1.5000   -2.5981    0.0000 H   0  0  0  0  0  0  0  0  0  0  0  0
    1.5000    2.5981    0.0000 O   0  0  0  0  0  0  0  0  0  2  0  0
   -0.7500    1.2990    0.0000 C   0  0  0  0  0  0  0  0  0 10  0  0
   -1.5000   -2.5981    0.0000 O   0  0  0  0  0  0  0  0  0  1  0  0
   -1.5000    0.0000    0.0000 C   0  0  0  0  0  0  0  0  0 12  0  0
    3.0000    2.5981    0.0000 C   0  0  0  0  0  0  0  0  0  6  0  0
   -1.5000    2.5981    0.0000 H   0  0  0  0  0  0  0  0  0  0  0  0
   -0.7500   -3.8971    0.0000 C   0  0  0  0  0  0  0  0  0  5  0  0
   -3.0000    0.0000    0.0000 C   0  0  0  0  0  0  0  0  0  9  0  0
    3.0000    4.0981    0.0000 H   0  0  0  0  0  0  0  0  0  0  0  0
    3.0000    1.0981    0.0000 H   0  0  0  0  0  0  0  0  0  0  0  0
    4.5000    2.5981    0.0000 H   0  0  0  0  0  0  0  0  0  0  0  0
   -2.0490   -4.6471    0.0000 H   0  0  0  0  0  0  0  0  0  0  0  0
    0.5490   -3.1471    0.0000 H   0  0  0  0  0  0  0  0  0  0  0  0
   -0.0000   -5.1962    0.0000 H   0  0  0  0  0  0  0  0  0  0  0  0
   -3.7500   -1.2990    0.0000 C   0  0  0  0  0  0  0  0  0  8  0  0
   -3.7500    1.2990    0.0000 H   0  0  0  0  0  0  0  0  0  0  0  0
   -5.2500   -1.2990    0.0000 C   0  0  0  0  0  0  0  0  0  4  0  0
   -3.0000   -2.5981    0.0000 H   0  0  0  0  0  0  0  0  0  0  0  0
   -5.2500   -2.7990    0.0000 H   0  0  0  0  0  0  0  0  0  0  0  0
   -5.2500    0.2010    0.0000 H   0  0  0  0  0  0  0  0  0  0  0  0
   -6.7500   -1.2990    0.0000 H   0  0  0  0  0  0  0  0  0  0  0  0
    3.7500   -1.2990    0.0000 H   0  0  0  0  0  0  0  0  0  0  0  0
  1  2  1  0
  3  1  2  0
  1  4  1  0
  5  3  1  0
  3  6  1  0
  4  7  1  0
  4  8  2  0
  9  5  1  0
 10  5  2  0
  7 11  1  0
  8 10  1  0
  8 12  1  0
  9 13  1  0
 10 14  1  0
 11 15  1  0
 11 16  1  0
 11 17  1  0
 13 18  1  0
 13 19  1  0
 13 20  1  0
 14 21  2  0
 14 22  1  0
 21 23  1  0
 21 24  1  0
 23 25  1  0
 23 26  1  0
 23 27  1  0
  2 28  1  0
M  END
>  <SMILES>  (2) 
CC=Cc1cc(OC)c(O)cc1OC

>  <Molecular Weight>  (2) 
194.2

>  <Substrate_ID>  (2) 
MOL0038

>  <Substrate>  (2) 


>  <Substrate_SMILES>  (2) 
CC=Cc1cc(OC)c(OC)cc1OC

>  <Reaction>  (2) 
O-demethylation

>  <Score>  (2) 
0.4532

>  <Reaction_Score>  (2) 
0.4409

>  <Bond_Score>  (2) 
0.4657

>  <Rank>  (2) 
2

>  <Subtype>  (2) 
REACTION

>  <Subtype_Scores>  (2) 
[REACTION] SOM_score: 0.4657, Reaction_score: 0.4409, Score: 0.4532


$$$$

     RDKit          2D

 28 28  0  0  0  0  0  0  0  0999 V2000
    1.5000    0.0000    0.0000 C   0  0  0  0  0  0  0  0  0 13  0  0
    3.0000    0.0000    0.0000 O   0  0  0  0  0  0  0  0  0  1  0  0
    0.7500   -1.2990    0.0000 C   0  0  0  0  0  0  0  0  0 11  0  0
    0.7500    1.2990    0.0000 C   0  0  0  0  0  0  0  0  0 12  0  0
   -0.7500   -1.2990    0.0000 C   0  0  0  0  0  0  0  0  0 15  0  0
    1.5000   -2.5981    0.0000 H   0  0  0  0  0  0  0  0  0  0  0  0
   -0.7500    1.2990    0.0000 C   0  0  0  0  0  0  0  0  0 10  0  0
    1.5000    2.5981    0.0000 C   0  0  0  0  0  0  0  0  0  9  0  0
   -1.5000   -2.5981    0.0000 O   0  0  0  0  0  0  0  0  0  3  0  0
   -1.5000    0.0000    0.0000 C   0  0  0  0  0  0  0  0  0 14  0  0
   -1.5000    2.5981    0.0000 H   0  0  0  0  0  0  0  0  0  0  0  0
    3.0000    2.5981    0.0000 C   0  0  0  0  0  0  0  0  0  8  0  0
    0.7500    3.8971    0.0000 H   0  0  0  0  0  0  0  0  0  0  0  0
   -3.0000   -2.5981    0.0000 C   0  0  0  0  0  0  0  0  0  7  0  0
   -3.0000    0.0000    0.0000 O   0  0  0  0  0  0  0  0  0  2  0  0
    3.7500    3.8971    0.0000 C   0  0  0  0  0  0  0  0  0  4  0  0
    3.7500    1.2990    0.0000 H   0  0  0  0  0  0  0  0  0  0  0  0
   -3.0000   -4.0981    0.0000 H   0  0  0  0  0  0  0  0  0  0  0  0
   -3.0000   -1.0981    0.0000 H   0  0  0  0  0  0  0  0  0  0  0  0
   -4.5000   -2.5981    0.0000 H   0  0  0  0  0  0  0  0  0  0  0  0
   -3.7500    1.2990    0.0000 C   0  0  0  0  0  0  0  0  0  6  0  0
    5.0490    3.1471    0.0000 H   0  0  0  0  0  0  0  0  0  0  0  0
    2.4510    4.6471    0.0000 H   0  0  0  0  0  0  0  0  0  0  0  0
    4.5000    5.1962    0.0000 H   0  0  0  0  0  0  0  0  0  0  0  0
   -5.0490    0.5490    0.0000 H   0  0  0  0  0  0  0  0  0  0  0  0
   -2.4510    2.0490    0.0000 H   0  0  0  0  0  0  0  0  0  0  0  0
   -4.5000    2.5981    0.0000 H   0  0  0  0  0  0  0  0  0  0  0  0
    3.7500   -1.2990    0.0000 H   0  0  0  0  0  0  0  0  0  0  0  0
  1  2  1  0
  1  3  2  0
  4  1  1  0
  3  5  1  0
  3  6  1  0
  7  4  2  0
  4  8  1  0
  5  9  1  0
  5 10  2  0
 10  7  1  0
  7 11  1  0
  8 12  2  0
  8 13  1  0
  9 14  1  0
 10 15  1  0
 12 16  1  0
 12 17  1  0
 14 18  1  0
 14 19  1  0
 14 20  1  0
 15 21  1  0
 16 22  1  0
 16 23  1  0
 16 24  1  0
 21 25  1  0
 21 26  1  0
 21 27  1  0
  2 28  1  0
M  END
>  <SMILES>  (3) 
CC=Cc1cc(OC)c(OC)cc1O

>  <Molecular Weight>  (3) 
194.2

>  <Substrate_ID>  (3) 
MOL0038

>  <Substrate>  (3) 


>  <Substrate_SMILES>  (3) 
CC=Cc1cc(OC)c(OC)cc1OC

>  <Reaction>  (3) 
O-demethylation

>  <Score>  (3) 
0.4364

>  <Reaction_Score>  (3) 
0.4208

>  <Bond_Score>  (3) 
0.4526

>  <Rank>  (3) 
3

>  <Subtype>  (3) 
REACTION

>  <Subtype_Scores>  (3) 
[REACTION] SOM_score: 0.4526, Reaction_score: 0.4208, Score: 0.4364


$$$$
