
     RDKit          2D

 37 38  0  0  0  0  0  0  0  0999 V2000
    1.5000   -2.5981    0.0000 N   0  0  0  0  0  0  0  0  0  7  0  0
    0.7500   -1.2990    0.0000 C   0  0  0  0  0  0  0  0  0 21  0  0
    1.5000    0.0000    0.0000 C   0  0  0  0  0  0  0  0  0 16  0  0
    0.7500    1.2990    0.0000 C   0  0  0  0  0  0  0  0  0 12  0  0
   -0.7500    1.2990    0.0000 C   0  0  0  0  0  0  0  0  0 10  0  0
   -1.5000    2.5981    0.0000 O   0  0  0  0  0  0  0  0  0 23  0  0
   -1.5000    0.0000    0.0000 C   0  0  0  0  0  0  0  0  0 11  0  0
   -0.7500   -1.2990    0.0000 C   0  0  0  0  0  0  0  0  0 15  0  0
    3.0000   -2.5981    0.0000 S   0  0  0  0  0  6  0  0  0  1  0  0
    0.7500   -3.8971    0.0000 H   0  0  0  0  0  0  0  0  0  0  0  0
    3.0000   -1.0981    0.0000 O   0  0  0  0  0  0  0  0  0  3  0  0
    3.0000   -4.0981    0.0000 O   0  0  0  0  0  0  0  0  0  4  0  0
    4.5000   -2.5981    0.0000 C   0  0  0  0  0  0  0  0  0 22  0  0
    5.2500   -3.8971    0.0000 C   0  0  0  0  0  0  0  0  0 17  0  0
    5.2500   -1.2990    0.0000 C   0  0  0  0  0  0  0  0  0 18  0  0
    6.7500   -3.8971    0.0000 C   0  0  0  0  0  0  0  0  0 13  0  0
    4.5000   -5.1962    0.0000 H   0  0  0  0  0  0  0  0  0  0  0  0
    6.7500   -1.2990    0.0000 C   0  0  0  0  0  0  0  0  0 20  0  0
    4.5000   -0.0000    0.0000 H   0  0  0  0  0  0  0  0  0  0  0  0
    7.5000   -2.5981    0.0000 C   0  0  0  0  0  0  0  0  0 14  0  0
    7.5000   -5.1962    0.0000 H   0  0  0  0  0  0  0  0  0  0  0  0
    7.5000   -0.0000    0.0000 C   0  0  0  0  0  0  0  0  0  9  0  0
    9.0000   -2.5981    0.0000 H   0  0  0  0  0  0  0  0  0  0  0  0
    9.0000   -0.0000    0.0000 C   0  0  0  0  0  0  0  0  0  8  0  0
    6.7500    1.2990    0.0000 H   0  0  0  0  0  0  0  0  0  0  0  0
    9.7500    1.2990    0.0000 C   0  0  0  0  0  0  0  0  0 19  0  0
    9.7500   -1.2990    0.0000 H   0  0  0  0  0  0  0  0  0  0  0  0
    9.0000    2.5981    0.0000 O   0  0  0  0  0  0  0  0  0  2  0  0
   11.2500    1.2990    0.0000 N   0  0  0  0  0  0  0  0  0  6  0  0
   12.0000   -0.0000    0.0000 O   0  0  0  0  0  0  0  0  0  5  0  0
   12.0000    2.5981    0.0000 H   0  0  0  0  0  0  0  0  0  0  0  0
   13.5000   -0.0000    0.0000 H   0  0  0  0  0  0  0  0  0  0  0  0
    3.0000    0.0000    0.0000 H   0  0  0  0  0  0  0  0  0  0  0  0
    1.5000    2.5981    0.0000 H   0  0  0  0  0  0  0  0  0  0  0  0
   -3.0000    0.0000    0.0000 H   0  0  0  0  0  0  0  0  0  0  0  0
   -1.5000   -2.5981    0.0000 H   0  0  0  0  0  0  0  0  0  0  0  0
   -0.7500    3.8971    0.0000 H   0  0  0  0  0  0  0  0  0  0  0  0
  1  2  1  0
  2  3  2  0
  3  4  1  0
  4  5  2  0
  5  6  1  0
  5  7  1  0
  7  8  2  0
  8  2  1  0
  9  1  1  0
  1 10  1  0
  9 11  2  0
  9 12  2  0
  9 13  1  0
 13 14  2  0
 15 13  1  0
 14 16  1  0
 14 17  1  0
 18 15  2  0
 15 19  1  0
 16 20  2  0
 16 21  1  0
 20 18  1  0
 18 22  1  0
 20 23  1  0
 22 24  2  0
 22 25  1  0
 24 26  1  0
 24 27  1  0
 26 28  2  0
 26 29  1  0
 29 30  1  0
 29 31  1  0
 30 32  1  0
  3 33  1  0
  4 34  1  0
  7 35  1  0
  8 36  1  0
  6 37  1  0
M  END
>  <SMILES>  (1) 
O=C(C=Cc1cccc(S(=O)(=O)Nc2ccc(O)cc2)c1)NO

>  <Molecular Weight>  (1) 
334.4

>  <Substrate_ID>  (1) 
MOL0035

>  <Substrate>  (1) 


>  <Substrate_SMILES>  (1) 
O=C(C=Cc1cccc(S(=O)(=O)Nc2ccccc2)c1)NO

>  <Reaction>  (1) 
aromatic_hydroxylation_(para_to_nitrogen),aromatic hydroxylation

>  <Score>  (1) 
0.2574

>  <Reaction_Score>  (1) 
0.2842

>  <Bond_Score>  (1) 
0.233

>  <Rank>  (1) 
1

>  <Subtype>  (1) 
REACTION

>  <Subtype_Scores>  (1) 
[REACTION] SOM_score: 0.2330, Reaction_score: 0.2842, Score: 0.2574


$$$$

     RDKit          2D

 37 38  0  0  0  0  0  0  0  0999 V2000
    6.0000    2.5981    0.0000 N   0  0  0  0  0  0  0  0  0  6  0  0
    5.2500    3.8971    0.0000 O   0  0  0  0  0  0  0  0  0 23  0  0
    6.0000    5.1962    0.0000 H   0  0  0  0  0  0  0  0  0  0  0  0
    5.2500    1.2990    0.0000 C   0  0  0  0  0  0  0  0  0 19  0  0
    7.5000    2.5981    0.0000 O   0  0  0  0  0  0  0  0  0  5  0  0
    8.2500    3.8971    0.0000 H   0  0  0  0  0  0  0  0  0  0  0  0
    3.7500    1.2990    0.0000 C   0  0  0  0  0  0  0  0  0  8  0  0
    6.0000   -0.0000    0.0000 O   0  0  0  0  0  0  0  0  0  2  0  0
    3.0000    0.0000    0.0000 C   0  0  0  0  0  0  0  0  0  9  0  0
    3.0000    2.5981    0.0000 H   0  0  0  0  0  0  0  0  0  0  0  0
    1.5000    0.0000    0.0000 C   0  0  0  0  0  0  0  0  0 20  0  0
    3.7500   -1.2990    0.0000 H   0  0  0  0  0  0  0  0  0  0  0  0
    0.7500   -1.2990    0.0000 C   0  0  0  0  0  0  0  0  0 14  0  0
    0.7500    1.2990    0.0000 C   0  0  0  0  0  0  0  0  0 18  0  0
   -0.7500   -1.2990    0.0000 C   0  0  0  0  0  0  0  0  0 13  0  0
    1.5000   -2.5981    0.0000 H   0  0  0  0  0  0  0  0  0  0  0  0
   -0.7500    1.2990    0.0000 C   0  0  0  0  0  0  0  0  0 22  0  0
    1.5000    2.5981    0.0000 H   0  0  0  0  0  0  0  0  0  0  0  0
   -1.5000    0.0000    0.0000 C   0  0  0  0  0  0  0  0  0 17  0  0
   -1.5000   -2.5981    0.0000 H   0  0  0  0  0  0  0  0  0  0  0  0
   -1.5000    2.5981    0.0000 S   0  0  0  0  0  6  0  0  0  1  0  0
   -3.0000    0.0000    0.0000 H   0  0  0  0  0  0  0  0  0  0  0  0
   -0.2010    3.3481    0.0000 O   0  0  0  0  0  0  0  0  0  3  0  0
   -2.7990    1.8481    0.0000 O   0  0  0  0  0  0  0  0  0  4  0  0
   -2.2500    3.8971    0.0000 N   0  0  0  0  0  0  0  0  0  7  0  0
   -1.5000    5.1962    0.0000 C   0  0  0  0  0  0  0  0  0 21  0  0
   -3.7500    3.8971    0.0000 H   0  0  0  0  0  0  0  0  0  0  0  0
    0.0000    5.1962    0.0000 C   0  0  0  0  0  0  0  0  0 15  0  0
   -2.2500    6.4952    0.0000 C   0  0  0  0  0  0  0  0  0 16  0  0
    0.7500    6.4952    0.0000 C   0  0  0  0  0  0  0  0  0 11  0  0
    0.7500    3.8971    0.0000 H   0  0  0  0  0  0  0  0  0  0  0  0
   -1.5000    7.7942    0.0000 C   0  0  0  0  0  0  0  0  0 12  0  0
   -3.7500    6.4952    0.0000 H   0  0  0  0  0  0  0  0  0  0  0  0
    0.0000    7.7942    0.0000 C   0  0  0  0  0  0  0  0  0 10  0  0
    2.2500    6.4952    0.0000 H   0  0  0  0  0  0  0  0  0  0  0  0
   -2.2500    9.0933    0.0000 H   0  0  0  0  0  0  0  0  0  0  0  0
    0.7500    9.0933    0.0000 H   0  0  0  0  0  0  0  0  0  0  0  0
  1  2  1  0
  2  3  1  0
  1  4  1  0
  1  5  1  0
  5  6  1  0
  7  4  1  0
  4  8  2  0
  9  7  2  0
  7 10  1  0
 11  9  1  0
  9 12  1  0
 13 11  2  0
 11 14  1  0
 15 13  1  0
 13 16  1  0
 14 17  2  0
 14 18  1  0
 19 15  2  0
 15 20  1  0
 21 17  1  0
 17 19  1  0
 19 22  1  0
 21 23  2  0
 21 24  2  0
 21 25  1  0
 25 26  1  0
 25 27  1  0
 26 28  2  0
 29 26  1  0
 28 30  1  0
 28 31  1  0
 32 29  2  0
 29 33  1  0
 30 34  2  0
 30 35  1  0
 34 32  1  0
 32 36  1  0
 34 37  1  0
M  END
>  <SMILES>  (2) 
O=C(C=Cc1cccc(S(=O)(=O)Nc2ccccc2)c1)N(O)O

>  <Molecular Weight>  (2) 
334.4

>  <Substrate_ID>  (2) 
MOL0035

>  <Substrate>  (2) 


>  <Substrate_SMILES>  (2) 
O=C(C=Cc1cccc(S(=O)(=O)Nc2ccccc2)c1)NO

>  <Reaction>  (2) 
amine hydroxylation

>  <Score>  (2) 
0.0235

>  <Reaction_Score>  (2) 
0.004

>  <Bond_Score>  (2) 
0.1371

>  <Rank>  (2) 
2

>  <Subtype>  (2) 
REACTION

>  <Subtype_Scores>  (2) 
[REACTION] SOM_score: 0.1371, Reaction_score: 0.0040, Score: 0.0235


$$$$
