
     RDKit          2D

 32 33  0  0  0  0  0  0  0  0999 V2000
    1.5000    0.0000    0.0000 N   0  0  0  0  0  0  0  0  0  3  0  0
    0.7500   -1.2990    0.0000 C   0  0  0  0  0  0  0  0  0 16  0  0
    0.7500    1.2990    0.0000 C   0  0  0  0  0  0  0  0  0 30  0  0
   -0.7500   -1.2990    0.0000 C   0  0  0  0  0  0  0  0  0 15  0  0
    2.1595   -1.8121    0.0000 H   0  0  0  0  0  0  0  0  0  0  0  0
    0.4895   -2.7762    0.0000 H   0  0  0  0  0  0  0  0  0  0  0  0
   -0.7500    1.2990    0.0000 C   0  0  0  0  0  0  0  0  0 31  0  0
    0.4895    2.7762    0.0000 H   0  0  0  0  0  0  0  0  0  0  0  0
    2.1595    1.8121    0.0000 H   0  0  0  0  0  0  0  0  0  0  0  0
   -1.5000    0.0000    0.0000 N   0  0  0  0  0  0  0  0  0  2  0  0
   -0.4895   -2.7762    0.0000 H   0  0  0  0  0  0  0  0  0  0  0  0
   -2.0865   -1.9801    0.0000 H   0  0  0  0  0  0  0  0  0  0  0  0
   -2.0865    1.9801    0.0000 H   0  0  0  0  0  0  0  0  0  0  0  0
   -0.4895    2.7762    0.0000 H   0  0  0  0  0  0  0  0  0  0  0  0
   -3.0000    0.0000    0.0000 C   0  0  0  0  0  0  0  0  0 14  0  0
   -4.5000    0.0000    0.0000 C   0  0  0  0  0  0  0  0  0 13  0  0
   -3.1828   -1.4888    0.0000 H   0  0  0  0  0  0  0  0  0  0  0  0
   -3.1828    1.4888    0.0000 H   0  0  0  0  0  0  0  0  0  0  0  0
   -6.0000    0.0000    0.0000 C   0  0  0  0  0  0  0  0  0 12  0  0
   -4.5000    1.5000    0.0000 H   0  0  0  0  0  0  0  0  0  0  0  0
   -4.5000   -1.5000    0.0000 H   0  0  0  0  0  0  0  0  0  0  0  0
   -6.7500    1.2990    0.0000 C   0  0  0  0  0  0  0  0  0 11  0  0
   -6.7500   -1.2990    0.0000 C   0  0  0  0  0  0  0  0  0 32  0  0
   -8.2500    1.2990    0.0000 C   0  0  0  0  0  0  0  0  0 10  0  0
   -6.0000    2.5981    0.0000 H   0  0  0  0  0  0  0  0  0  0  0  0
   -8.2500   -1.2990    0.0000 C   0  0  0  0  0  0  0  0  0  8  0  0
   -6.0000   -2.5981    0.0000 H   0  0  0  0  0  0  0  0  0  0  0  0
   -9.0000    0.0000    0.0000 C   0  0  0  0  0  0  0  0  0  9  0  0
   -9.0000    2.5981    0.0000 H   0  0  0  0  0  0  0  0  0  0  0  0
   -9.0000   -2.5981    0.0000 F   0  0  0  0  0  0  0  0  0  1  0  0
  -10.5000    0.0000    0.0000 H   0  0  0  0  0  0  0  0  0  0  0  0
    3.0000    0.0000    0.0000 H   0  0  0  0  0  0  0  0  0  0  0  0
  2  1  1  0
  1  3  1  0
  4  2  1  0
  2  5  1  0
  2  6  1  0
  3  7  1  0
  3  8  1  0
  3  9  1  0
 10  4  1  0
  4 11  1  0
  4 12  1  0
  7 10  1  0
  7 13  1  0
  7 14  1  0
 15 10  1  0
 16 15  1  0
 15 17  1  0
 15 18  1  0
 19 16  1  0
 16 20  1  0
 16 21  1  0
 22 19  2  0
 19 23  1  0
 24 22  1  0
 22 25  1  0
 23 26  2  0
 23 27  1  0
 28 24  2  0
 24 29  1  0
 30 26  1  0
 26 28  1  0
 28 31  1  0
  1 32  1  0
M  END
>  <SMILES>  (1) 
Fc1cccc(CCN2CCNCC2)c1

>  <Molecular Weight>  (1) 
208.3

>  <Substrate_ID>  (1) 
MOL0087

>  <Substrate>  (1) 


>  <Substrate_SMILES>  (1) 
Fc1cccc(CCN2CCN(CCCc3c[nH]c4ccc(-n5cnnc5)cc34)CC2)c1

>  <Reaction>  (1) 
N-dealkylation_(tertiaryN-CH2-alkyl)

>  <Score>  (1) 
0.4696

>  <Reaction_Score>  (1) 
0.4705

>  <Bond_Score>  (1) 
0.4686

>  <Rank>  (1) 
1

>  <Subtype>  (1) 
REACTION

>  <Subtype_Scores>  (1) 
[REACTION] SOM_score: 0.4686, Reaction_score: 0.4705, Score: 0.4696


$$$$

     RDKit          2D

 32 34  0  0  0  0  0  0  0  0999 V2000
    7.2760    0.0000    0.0000 O   0  0  0  0  0  0  0  0  0 33  0  0
    5.7760    0.0000    0.0000 C   0  0  0  0  0  0  0  0  0 17  0  0
    4.2760    0.0000    0.0000 C   0  0  0  0  0  0  0  0  0 18  0  0
    5.7760    1.5000    0.0000 H   0  0  0  0  0  0  0  0  0  0  0  0
    5.7760   -1.5000    0.0000 H   0  0  0  0  0  0  0  0  0  0  0  0
    2.7760    0.0000    0.0000 C   0  0  0  0  0  0  0  0  0 19  0  0
    4.2760    1.5000    0.0000 H   0  0  0  0  0  0  0  0  0  0  0  0
    4.2760   -1.5000    0.0000 H   0  0  0  0  0  0  0  0  0  0  0  0
    1.2760    0.0000    0.0000 C   0  0  0  0  0  0  0  0  0 20  0  0
    2.7760    1.5000    0.0000 H   0  0  0  0  0  0  0  0  0  0  0  0
    2.7760   -1.5000    0.0000 H   0  0  0  0  0  0  0  0  0  0  0  0
    0.3943    1.2135    0.0000 C   0  0  0  0  0  0  0  0  0 21  0  0
    0.3943   -1.2135    0.0000 C   0  0  0  0  0  0  0  0  0 27  0  0
   -1.0323    0.7500    0.0000 N   0  0  0  0  0  0  0  0  0  4  0  0
    0.8578    2.6401    0.0000 H   0  0  0  0  0  0  0  0  0  0  0  0
    0.7062   -2.6807    0.0000 C   0  0  0  0  0  0  0  0  0 26  0  0
   -1.0323   -0.7500    0.0000 C   0  0  0  0  0  0  0  0  0 22  0  0
   -2.2458    1.6317    0.0000 H   0  0  0  0  0  0  0  0  0  0  0  0
   -0.4086   -3.6844    0.0000 C   0  0  0  0  0  0  0  0  0 25  0  0
    2.1328   -3.1443    0.0000 H   0  0  0  0  0  0  0  0  0  0  0  0
   -2.1470   -1.7537    0.0000 C   0  0  0  0  0  0  0  0  0 23  0  0
   -1.8351   -3.2209    0.0000 C   0  0  0  0  0  0  0  0  0 24  0  0
   -0.0967   -5.1517    0.0000 N   0  0  0  0  0  0  0  0  0  5  0  0
   -3.5736   -1.2902    0.0000 H   0  0  0  0  0  0  0  0  0  0  0  0
   -2.9499   -4.2246    0.0000 H   0  0  0  0  0  0  0  0  0  0  0  0
    1.2736   -5.7618    0.0000 C   0  0  0  0  0  0  0  0  0 28  0  0
   -1.1004   -6.2664    0.0000 C   0  0  0  0  0  0  0  0  0 29  0  0
    1.1168   -7.2536    0.0000 N   0  0  0  0  0  0  0  0  0  6  0  0
    2.5727   -5.0118    0.0000 H   0  0  0  0  0  0  0  0  0  0  0  0
   -0.3504   -7.5654    0.0000 N   0  0  0  0  0  0  0  0  0  7  0  0
   -2.5922   -6.1096    0.0000 H   0  0  0  0  0  0  0  0  0  0  0  0
    8.0260   -1.2990    0.0000 H   0  0  0  0  0  0  0  0  0  0  0  0
  1  2  1  0
  2  3  1  0
  2  4  1  0
  2  5  1  0
  3  6  1  0
  3  7  1  0
  3  8  1  0
  6  9  1  0
  6 10  1  0
  6 11  1  0
  9 12  2  0
 13  9  1  0
 12 14  1  0
 12 15  1  0
 16 13  2  0
 13 17  1  0
 14 17  1  0
 14 18  1  0
 19 16  1  0
 16 20  1  0
 17 21  2  0
 22 19  2  0
 19 23  1  0
 21 22  1  0
 21 24  1  0
 22 25  1  0
 23 26  1  0
 27 23  1  0
 26 28  2  0
 26 29  1  0
 30 27  2  0
 27 31  1  0
 28 30  1  0
  1 32  1  0
M  END
>  <SMILES>  (2) 
OCCCc1c[nH]c2ccc(-n3cnnc3)cc12

>  <Molecular Weight>  (2) 
242.3

>  <Substrate_ID>  (2) 
MOL0087

>  <Substrate>  (2) 


>  <Substrate_SMILES>  (2) 
Fc1cccc(CCN2CCN(CCCc3c[nH]c4ccc(-n5cnnc5)cc34)CC2)c1

>  <Reaction>  (2) 
N-dealkylation_(tertiaryN-CH2-alkyl)

>  <Score>  (2) 
0.4696

>  <Reaction_Score>  (2) 
0.4705

>  <Bond_Score>  (2) 
0.4686

>  <Rank>  (2) 
1

>  <Subtype>  (2) 
REACTION

>  <Subtype_Scores>  (2) 
[REACTION] SOM_score: 0.4686, Reaction_score: 0.4705, Score: 0.4696


$$$$

     RDKit          2D

 30 32  0  0  0  0  0  0  0  0999 V2000
    5.7760    0.0000    0.0000 C   0  0  0  0  0  0  0  0  0 17  0  0
    6.5260    1.2990    0.0000 O   0  0  0  0  0  0  0  0  0 33  0  0
    4.2760    0.0000    0.0000 C   0  0  0  0  0  0  0  0  0 18  0  0
    6.5260   -1.2990    0.0000 H   0  0  0  0  0  0  0  0  0  0  0  0
    2.7760    0.0000    0.0000 C   0  0  0  0  0  0  0  0  0 19  0  0
    4.2760    1.5000    0.0000 H   0  0  0  0  0  0  0  0  0  0  0  0
    4.2760   -1.5000    0.0000 H   0  0  0  0  0  0  0  0  0  0  0  0
    1.2760    0.0000    0.0000 C   0  0  0  0  0  0  0  0  0 20  0  0
    2.7760    1.5000    0.0000 H   0  0  0  0  0  0  0  0  0  0  0  0
    2.7760   -1.5000    0.0000 H   0  0  0  0  0  0  0  0  0  0  0  0
    0.3943    1.2135    0.0000 C   0  0  0  0  0  0  0  0  0 21  0  0
    0.3943   -1.2135    0.0000 C   0  0  0  0  0  0  0  0  0 27  0  0
   -1.0323    0.7500    0.0000 N   0  0  0  0  0  0  0  0  0  4  0  0
    0.8578    2.6401    0.0000 H   0  0  0  0  0  0  0  0  0  0  0  0
    0.7062   -2.6807    0.0000 C   0  0  0  0  0  0  0  0  0 26  0  0
   -1.0323   -0.7500    0.0000 C   0  0  0  0  0  0  0  0  0 22  0  0
   -2.2458    1.6317    0.0000 H   0  0  0  0  0  0  0  0  0  0  0  0
   -0.4086   -3.6844    0.0000 C   0  0  0  0  0  0  0  0  0 25  0  0
    2.1328   -3.1443    0.0000 H   0  0  0  0  0  0  0  0  0  0  0  0
   -2.1470   -1.7537    0.0000 C   0  0  0  0  0  0  0  0  0 23  0  0
   -1.8351   -3.2209    0.0000 C   0  0  0  0  0  0  0  0  0 24  0  0
   -0.0967   -5.1517    0.0000 N   0  0  0  0  0  0  0  0  0  5  0  0
   -3.5736   -1.2902    0.0000 H   0  0  0  0  0  0  0  0  0  0  0  0
   -2.9499   -4.2246    0.0000 H   0  0  0  0  0  0  0  0  0  0  0  0
    1.2736   -5.7618    0.0000 C   0  0  0  0  0  0  0  0  0 28  0  0
   -1.1004   -6.2664    0.0000 C   0  0  0  0  0  0  0  0  0 29  0  0
    1.1168   -7.2536    0.0000 N   0  0  0  0  0  0  0  0  0  6  0  0
    2.5727   -5.0118    0.0000 H   0  0  0  0  0  0  0  0  0  0  0  0
   -0.3504   -7.5654    0.0000 N   0  0  0  0  0  0  0  0  0  7  0  0
   -2.5922   -6.1096    0.0000 H   0  0  0  0  0  0  0  0  0  0  0  0
  1  2  2  0
  1  3  1  0
  1  4  1  0
  3  5  1  0
  3  6  1  0
  3  7  1  0
  5  8  1  0
  5  9  1  0
  5 10  1  0
  8 11  2  0
 12  8  1  0
 11 13  1  0
 11 14  1  0
 15 12  2  0
 12 16  1  0
 13 16  1  0
 13 17  1  0
 18 15  1  0
 15 19  1  0
 16 20  2  0
 21 18  2  0
 18 22  1  0
 20 21  1  0
 20 23  1  0
 21 24  1  0
 22 25  1  0
 26 22  1  0
 25 27  2  0
 25 28  1  0
 29 26  2  0
 26 30  1  0
 27 29  1  0
M  END
>  <SMILES>  (3) 
O=CCCc1c[nH]c2ccc(-n3cnnc3)cc12

>  <Molecular Weight>  (3) 
240.3

>  <Substrate_ID>  (3) 
MOL0087

>  <Substrate>  (3) 


>  <Substrate_SMILES>  (3) 
Fc1cccc(CCN2CCN(CCCc3c[nH]c4ccc(-n5cnnc5)cc34)CC2)c1

>  <Reaction>  (3) 
N-dealkylation_(hetero_ring)

>  <Score>  (3) 
0.4696

>  <Reaction_Score>  (3) 
0.4705

>  <Bond_Score>  (3) 
0.4686

>  <Rank>  (3) 
1

>  <Subtype>  (3) 
REACTION

>  <Subtype_Scores>  (3) 
[REACTION] SOM_score: 0.4686, Reaction_score: 0.4705, Score: 0.4696


$$$$

     RDKit          2D

 45 48  0  0  0  0  0  0  0  0999 V2000
    3.1755    9.7730    0.0000 N   0  0  0  0  0  0  0  0  0  2  0  0
    4.1791    8.6583    0.0000 C   0  0  0  0  0  0  0  0  0 15  0  0
    1.7082    9.4612    0.0000 C   0  0  0  0  0  0  0  0  0 31  0  0
    3.7156    7.2317    0.0000 C   0  0  0  0  0  0  0  0  0 16  0  0
    5.1026    9.8403    0.0000 H   0  0  0  0  0  0  0  0  0  0  0  0
    5.5036    7.9541    0.0000 H   0  0  0  0  0  0  0  0  0  0  0  0
    1.2447    8.0346    0.0000 C   0  0  0  0  0  0  0  0  0 30  0  0
    0.2228    9.6699    0.0000 H   0  0  0  0  0  0  0  0  0  0  0  0
    1.6559   10.9603    0.0000 H   0  0  0  0  0  0  0  0  0  0  0  0
    2.2484    6.9199    0.0000 N   0  0  0  0  0  0  0  0  0  3  0  0
    5.2010    7.0230    0.0000 H   0  0  0  0  0  0  0  0  0  0  0  0
    3.9503    5.7502    0.0000 H   0  0  0  0  0  0  0  0  0  0  0  0
    0.1840    6.9740    0.0000 H   0  0  0  0  0  0  0  0  0  0  0  0
   -0.0797    8.7388    0.0000 H   0  0  0  0  0  0  0  0  0  0  0  0
    1.7849    5.4933    0.0000 C   0  0  0  0  0  0  0  0  0 17  0  0
    1.3213    4.0667    0.0000 C   0  0  0  0  0  0  0  0  0 18  0  0
    3.1443    4.8593    0.0000 H   0  0  0  0  0  0  0  0  0  0  0  0
    0.3124    5.7795    0.0000 H   0  0  0  0  0  0  0  0  0  0  0  0
    0.8578    2.6401    0.0000 C   0  0  0  0  0  0  0  0  0 19  0  0
    2.7479    3.6032    0.0000 H   0  0  0  0  0  0  0  0  0  0  0  0
   -0.1052    4.5302    0.0000 H   0  0  0  0  0  0  0  0  0  0  0  0
    0.3943    1.2135    0.0000 C   0  0  0  0  0  0  0  0  0 20  0  0
    2.2844    2.1766    0.0000 H   0  0  0  0  0  0  0  0  0  0  0  0
   -0.5688    3.1036    0.0000 H   0  0  0  0  0  0  0  0  0  0  0  0
    1.2760    0.0000    0.0000 C   0  0  0  0  0  0  0  0  0 21  0  0
   -1.0323    0.7500    0.0000 C   0  0  0  0  0  0  0  0  0 27  0  0
    0.3943   -1.2135    0.0000 N   0  0  0  0  0  0  0  0  0  4  0  0
    2.7760    0.0000    0.0000 H   0  0  0  0  0  0  0  0  0  0  0  0
   -2.3313    1.5000    0.0000 C   0  0  0  0  0  0  0  0  0 26  0  0
   -1.0323   -0.7500    0.0000 C   0  0  0  0  0  0  0  0  0 22  0  0
    0.8578   -2.6401    0.0000 H   0  0  0  0  0  0  0  0  0  0  0  0
   -3.6304    0.7500    0.0000 C   0  0  0  0  0  0  0  0  0 25  0  0
   -2.3313    3.0000    0.0000 H   0  0  0  0  0  0  0  0  0  0  0  0
   -2.3313   -1.5000    0.0000 C   0  0  0  0  0  0  0  0  0 23  0  0
   -3.6304   -0.7500    0.0000 C   0  0  0  0  0  0  0  0  0 24  0  0
   -4.9294    1.5000    0.0000 N   0  0  0  0  0  0  0  0  0  5  0  0
   -2.3313   -3.0000    0.0000 H   0  0  0  0  0  0  0  0  0  0  0  0
   -4.9294   -1.5000    0.0000 H   0  0  0  0  0  0  0  0  0  0  0  0
   -6.2997    0.8899    0.0000 C   0  0  0  0  0  0  0  0  0 28  0  0
   -5.0862    2.9918    0.0000 C   0  0  0  0  0  0  0  0  0 29  0  0
   -7.3034    2.0046    0.0000 N   0  0  0  0  0  0  0  0  0  6  0  0
   -6.6116   -0.5773    0.0000 H   0  0  0  0  0  0  0  0  0  0  0  0
   -6.5534    3.3037    0.0000 N   0  0  0  0  0  0  0  0  0  7  0  0
   -3.9715    3.9955    0.0000 H   0  0  0  0  0  0  0  0  0  0  0  0
    3.6390   11.1996    0.0000 H   0  0  0  0  0  0  0  0  0  0  0  0
  1  2  1  0
  3  1  1  0
  2  4  1  0
  2  5  1  0
  2  6  1  0
  7  3  1  0
  3  8  1  0
  3  9  1  0
  4 10  1  0
  4 11  1  0
  4 12  1  0
 10  7  1  0
  7 13  1  0
  7 14  1  0
 10 15  1  0
 15 16  1  0
 15 17  1  0
 15 18  1  0
 16 19  1  0
 16 20  1  0
 16 21  1  0
 19 22  1  0
 19 23  1  0
 19 24  1  0
 22 25  2  0
 26 22  1  0
 25 27  1  0
 25 28  1  0
 29 26  2  0
 26 30  1  0
 27 30  1  0
 27 31  1  0
 32 29  1  0
 29 33  1  0
 30 34  2  0
 35 32  2  0
 32 36  1  0
 34 35  1  0
 34 37  1  0
 35 38  1  0
 36 39  1  0
 40 36  1  0
 39 41  2  0
 39 42  1  0
 43 40  2  0
 40 44  1  0
 41 43  1  0
  1 45  1  0
M  END
>  <SMILES>  (4) 
c1cc2[nH]cc(CCCN3CCNCC3)c2cc1-n1cnnc1

>  <Molecular Weight>  (4) 
310.4

>  <Substrate_ID>  (4) 
MOL0087

>  <Substrate>  (4) 


>  <Substrate_SMILES>  (4) 
Fc1cccc(CCN2CCN(CCCc3c[nH]c4ccc(-n5cnnc5)cc34)CC2)c1

>  <Reaction>  (4) 
N-dealkylation_(tertiaryN-CH2-alkyl)

>  <Score>  (4) 
0.461

>  <Reaction_Score>  (4) 
0.4613

>  <Bond_Score>  (4) 
0.4606

>  <Rank>  (4) 
2

>  <Subtype>  (4) 
REACTION

>  <Subtype_Scores>  (4) 
[REACTION] SOM_score: 0.4606, Reaction_score: 0.4613, Score: 0.4610


$$$$

     RDKit          2D

 19 19  0  0  0  0  0  0  0  0999 V2000
    6.0000    0.0000    0.0000 O   0  0  0  0  0  0  0  0  0 33  0  0
    4.5000    0.0000    0.0000 C   0  0  0  0  0  0  0  0  0 14  0  0
    3.0000    0.0000    0.0000 C   0  0  0  0  0  0  0  0  0 13  0  0
    4.5000    1.5000    0.0000 H   0  0  0  0  0  0  0  0  0  0  0  0
    4.5000   -1.5000    0.0000 H   0  0  0  0  0  0  0  0  0  0  0  0
    1.5000    0.0000    0.0000 C   0  0  0  0  0  0  0  0  0 12  0  0
    3.0000   -1.5000    0.0000 H   0  0  0  0  0  0  0  0  0  0  0  0
    3.0000    1.5000    0.0000 H   0  0  0  0  0  0  0  0  0  0  0  0
    0.7500   -1.2990    0.0000 C   0  0  0  0  0  0  0  0  0 11  0  0
    0.7500    1.2990    0.0000 C   0  0  0  0  0  0  0  0  0 32  0  0
   -0.7500   -1.2990    0.0000 C   0  0  0  0  0  0  0  0  0 10  0  0
    1.5000   -2.5981    0.0000 H   0  0  0  0  0  0  0  0  0  0  0  0
   -0.7500    1.2990    0.0000 C   0  0  0  0  0  0  0  0  0  8  0  0
    1.5000    2.5981    0.0000 H   0  0  0  0  0  0  0  0  0  0  0  0
   -1.5000    0.0000    0.0000 C   0  0  0  0  0  0  0  0  0  9  0  0
   -1.5000   -2.5981    0.0000 H   0  0  0  0  0  0  0  0  0  0  0  0
   -1.5000    2.5981    0.0000 F   0  0  0  0  0  0  0  0  0  1  0  0
   -3.0000    0.0000    0.0000 H   0  0  0  0  0  0  0  0  0  0  0  0
    6.7500   -1.2990    0.0000 H   0  0  0  0  0  0  0  0  0  0  0  0
  1  2  1  0
  3  2  1  0
  2  4  1  0
  2  5  1  0
  6  3  1  0
  3  7  1  0
  3  8  1  0
  9  6  2  0
  6 10  1  0
 11  9  1  0
  9 12  1  0
 10 13  2  0
 10 14  1  0
 15 11  2  0
 11 16  1  0
 17 13  1  0
 13 15  1  0
 15 18  1  0
  1 19  1  0
M  END
>  <SMILES>  (5) 
OCCc1cccc(F)c1

>  <Molecular Weight>  (5) 
140.2

>  <Substrate_ID>  (5) 
MOL0087

>  <Substrate>  (5) 


>  <Substrate_SMILES>  (5) 
Fc1cccc(CCN2CCN(CCCc3c[nH]c4ccc(-n5cnnc5)cc34)CC2)c1

>  <Reaction>  (5) 
N-dealkylation_(tertiaryN-CH2-alkyl)

>  <Score>  (5) 
0.461

>  <Reaction_Score>  (5) 
0.4613

>  <Bond_Score>  (5) 
0.4606

>  <Rank>  (5) 
2

>  <Subtype>  (5) 
REACTION

>  <Subtype_Scores>  (5) 
[REACTION] SOM_score: 0.4606, Reaction_score: 0.4613, Score: 0.4610


$$$$

     RDKit          2D

 17 17  0  0  0  0  0  0  0  0999 V2000
    4.5000    0.0000    0.0000 C   0  0  0  0  0  0  0  0  0 14  0  0
    5.2500    1.2990    0.0000 O   0  0  0  0  0  0  0  0  0 33  0  0
    3.0000    0.0000    0.0000 C   0  0  0  0  0  0  0  0  0 13  0  0
    5.2500   -1.2990    0.0000 H   0  0  0  0  0  0  0  0  0  0  0  0
    1.5000    0.0000    0.0000 C   0  0  0  0  0  0  0  0  0 12  0  0
    3.0000    1.5000    0.0000 H   0  0  0  0  0  0  0  0  0  0  0  0
    3.0000   -1.5000    0.0000 H   0  0  0  0  0  0  0  0  0  0  0  0
    0.7500   -1.2990    0.0000 C   0  0  0  0  0  0  0  0  0 11  0  0
    0.7500    1.2990    0.0000 C   0  0  0  0  0  0  0  0  0 32  0  0
   -0.7500   -1.2990    0.0000 C   0  0  0  0  0  0  0  0  0 10  0  0
    1.5000   -2.5981    0.0000 H   0  0  0  0  0  0  0  0  0  0  0  0
   -0.7500    1.2990    0.0000 C   0  0  0  0  0  0  0  0  0  8  0  0
    1.5000    2.5981    0.0000 H   0  0  0  0  0  0  0  0  0  0  0  0
   -1.5000    0.0000    0.0000 C   0  0  0  0  0  0  0  0  0  9  0  0
   -1.5000   -2.5981    0.0000 H   0  0  0  0  0  0  0  0  0  0  0  0
   -1.5000    2.5981    0.0000 F   0  0  0  0  0  0  0  0  0  1  0  0
   -3.0000    0.0000    0.0000 H   0  0  0  0  0  0  0  0  0  0  0  0
  1  2  2  0
  3  1  1  0
  1  4  1  0
  5  3  1  0
  3  6  1  0
  3  7  1  0
  8  5  2  0
  5  9  1  0
 10  8  1  0
  8 11  1  0
  9 12  2  0
  9 13  1  0
 14 10  2  0
 10 15  1  0
 16 12  1  0
 12 14  1  0
 14 17  1  0
M  END
>  <SMILES>  (6) 
O=CCc1cccc(F)c1

>  <Molecular Weight>  (6) 
138.1

>  <Substrate_ID>  (6) 
MOL0087

>  <Substrate>  (6) 


>  <Substrate_SMILES>  (6) 
Fc1cccc(CCN2CCN(CCCc3c[nH]c4ccc(-n5cnnc5)cc34)CC2)c1

>  <Reaction>  (6) 
N-dealkylation_(hetero_ring)

>  <Score>  (6) 
0.461

>  <Reaction_Score>  (6) 
0.4613

>  <Bond_Score>  (6) 
0.4606

>  <Rank>  (6) 
2

>  <Subtype>  (6) 
REACTION

>  <Subtype_Scores>  (6) 
[REACTION] SOM_score: 0.4606, Reaction_score: 0.4613, Score: 0.4610


$$$$
