
     RDKit          2D

 32 33  0  0  0  0  0  0  0  0999 V2000
    1.5000    0.0000    0.0000 C   0  0  0  0  0  0  0  0  0 13  0  0
    3.0000    0.0000    0.0000 C   0  0  0  0  0  0  0  0  0  5  0  0
    4.5000    0.0000    0.0000 O   0  0  0  0  0  0  0  0  0 17  0  0
    0.7500   -1.2990    0.0000 C   0  0  0  0  0  0  0  0  0  8  0  0
    0.7500    1.2990    0.0000 C   0  0  0  0  0  0  0  0  0  7  0  0
   -0.7500   -1.2990    0.0000 C   0  0  0  0  0  0  0  0  0 15  0  0
    1.5000   -2.5981    0.0000 H   0  0  0  0  0  0  0  0  0  0  0  0
   -0.7500    1.2990    0.0000 C   0  0  0  0  0  0  0  0  0 14  0  0
    1.5000    2.5981    0.0000 H   0  0  0  0  0  0  0  0  0  0  0  0
   -1.5000   -2.5981    0.0000 O   0  0  0  0  0  0  0  0  0  2  0  0
   -1.5000    0.0000    0.0000 C   0  0  0  0  0  0  0  0  0  9  0  0
   -1.5000    2.5981    0.0000 C   0  0  0  0  0  0  0  0  0  6  0  0
   -3.0000   -2.5981    0.0000 C   0  0  0  0  0  0  0  0  0 11  0  0
   -3.0000    0.0000    0.0000 H   0  0  0  0  0  0  0  0  0  0  0  0
   -2.2500    3.8971    0.0000 H   0  0  0  0  0  0  0  0  0  0  0  0
   -2.7990    1.8481    0.0000 H   0  0  0  0  0  0  0  0  0  0  0  0
   -0.2010    3.3481    0.0000 H   0  0  0  0  0  0  0  0  0  0  0  0
   -4.5000   -2.5981    0.0000 C   0  0  0  0  0  0  0  0  0 16  0  0
   -3.0000   -1.0981    0.0000 H   0  0  0  0  0  0  0  0  0  0  0  0
   -2.9028   -3.3893    0.0000 H   0  0  0  0  0  0  0  0  0  0  0  0
   -5.9672   -2.2862    0.0000 O   0  0  0  0  0  0  0  0  0  3  0  0
   -4.3432   -4.0899    0.0000 C   0  0  0  0  0  0  0  0  0 10  0  0
   -4.3432   -1.1063    0.0000 H   0  0  0  0  0  0  0  0  0  0  0  0
   -6.7172   -3.5852    0.0000 C   0  0  0  0  0  0  0  0  0 12  0  0
   -5.7135   -4.7000    0.0000 N   0  0  0  0  0  0  0  0  0  4  0  0
   -3.8797   -5.5164    0.0000 H   0  0  0  0  0  0  0  0  0  0  0  0
   -3.5491   -4.0204    0.0000 H   0  0  0  0  0  0  0  0  0  0  0  0
   -8.2090   -3.7420    0.0000 O   0  0  0  0  0  0  0  0  0  1  0  0
   -6.0254   -6.1672    0.0000 H   0  0  0  0  0  0  0  0  0  0  0  0
    3.0000   -1.5000    0.0000 H   0  0  0  0  0  0  0  0  0  0  0  0
    3.0000    1.5000    0.0000 H   0  0  0  0  0  0  0  0  0  0  0  0
    5.2500    1.2990    0.0000 H   0  0  0  0  0  0  0  0  0  0  0  0
  1  2  1  0
  2  3  1  0
  4  1  2  0
  1  5  1  0
  6  4  1  0
  4  7  1  0
  5  8  2  0
  5  9  1  0
 10  6  1  0
 11  6  2  0
  8 12  1  0
  8 11  1  0
 13 10  1  0
 11 14  1  0
 12 15  1  0
 12 16  1  0
 12 17  1  0
 18 13  1  0
 13 19  1  0
 13 20  1  0
 21 18  1  0
 18 22  1  0
 18 23  1  6
 24 21  1  0
 22 25  1  0
 22 26  1  0
 22 27  1  0
 28 24  2  0
 25 24  1  0
 25 29  1  0
  2 30  1  0
  2 31  1  0
  3 32  1  0
M  END
>  <SMILES>  (1) 
Cc1cc(CO)cc(OCC2CNC(=O)O2)c1

>  <Molecular Weight>  (1) 
237.3

>  <Substrate_ID>  (1) 
MOL0001

>  <Substrate>  (1) 


>  <Substrate_SMILES>  (1) 
Cc1cc(C)cc(OCC2CNC(=O)O2)c1

>  <Reaction>  (1) 
benzylic_hydroxylation_(c-CH3),aliphatic hydroxylation

>  <Score>  (1) 
0.5587

>  <Reaction_Score>  (1) 
0.532

>  <Bond_Score>  (1) 
0.5868

>  <Rank>  (1) 
1

>  <Subtype>  (1) 
REACTION

>  <Subtype_Scores>  (1) 
[REACTION] SOM_score: 0.5868, Reaction_score: 0.5317, Score: 0.5586


$$$$

     RDKit          2D

 32 33  0  0  0  0  0  0  0  0999 V2000
    1.5000   -2.5981    0.0000 O   0  0  0  0  0  0  0  0  0  2  0  0
    0.7500   -1.2990    0.0000 C   0  0  0  0  0  0  0  0  0 15  0  0
    1.5000    0.0000    0.0000 C   0  0  0  0  0  0  0  0  0  9  0  0
    0.7500    1.2990    0.0000 C   0  0  0  0  0  0  0  0  0 14  0  0
   -0.7500    1.2990    0.0000 C   0  0  0  0  0  0  0  0  0  7  0  0
   -1.5000    2.5981    0.0000 O   0  0  0  0  0  0  0  0  0 17  0  0
   -1.5000    0.0000    0.0000 C   0  0  0  0  0  0  0  0  0 13  0  0
   -0.7500   -1.2990    0.0000 C   0  0  0  0  0  0  0  0  0  8  0  0
    0.7500   -3.8971    0.0000 C   0  0  0  0  0  0  0  0  0 11  0  0
   -0.0000   -5.1962    0.0000 C   0  0  0  0  0  0  0  0  0 16  0  0
   -0.5490   -3.1471    0.0000 H   0  0  0  0  0  0  0  0  0  0  0  0
    1.4838   -4.2086    0.0000 H   0  0  0  0  0  0  0  0  0  0  0  0
   -1.0037   -6.3109    0.0000 O   0  0  0  0  0  0  0  0  0  3  0  0
    1.3703   -5.8063    0.0000 C   0  0  0  0  0  0  0  0  0 10  0  0
   -1.2135   -4.3145    0.0000 H   0  0  0  0  0  0  0  0  0  0  0  0
   -0.2537   -7.6099    0.0000 C   0  0  0  0  0  0  0  0  0 12  0  0
    1.2135   -7.2980    0.0000 N   0  0  0  0  0  0  0  0  0  4  0  0
    2.8375   -6.1181    0.0000 H   0  0  0  0  0  0  0  0  0  0  0  0
    1.7072   -5.0838    0.0000 H   0  0  0  0  0  0  0  0  0  0  0  0
   -0.8638   -8.9802    0.0000 O   0  0  0  0  0  0  0  0  0  1  0  0
    2.3282   -8.3017    0.0000 H   0  0  0  0  0  0  0  0  0  0  0  0
    3.0000    0.0000    0.0000 H   0  0  0  0  0  0  0  0  0  0  0  0
    1.5000    2.5981    0.0000 C   0  0  0  0  0  0  0  0  0  6  0  0
    2.2500    3.8971    0.0000 H   0  0  0  0  0  0  0  0  0  0  0  0
    0.2010    3.3481    0.0000 H   0  0  0  0  0  0  0  0  0  0  0  0
    2.7990    1.8481    0.0000 H   0  0  0  0  0  0  0  0  0  0  0  0
   -3.0000    0.0000    0.0000 C   0  0  0  0  0  0  0  0  0  5  0  0
   -4.5000    0.0000    0.0000 H   0  0  0  0  0  0  0  0  0  0  0  0
   -3.0000   -1.5000    0.0000 H   0  0  0  0  0  0  0  0  0  0  0  0
   -3.0000    1.5000    0.0000 H   0  0  0  0  0  0  0  0  0  0  0  0
   -1.5000   -2.5981    0.0000 H   0  0  0  0  0  0  0  0  0  0  0  0
   -3.0000    2.5981    0.0000 H   0  0  0  0  0  0  0  0  0  0  0  0
  1  2  1  0
  2  3  2  0
  3  4  1  0
  4  5  2  0
  5  6  1  0
  5  7  1  0
  7  8  2  0
  8  2  1  0
  9  1  1  0
 10  9  1  0
  9 11  1  0
  9 12  1  0
 13 10  1  0
 10 14  1  0
 10 15  1  6
 16 13  1  0
 14 17  1  0
 14 18  1  0
 14 19  1  0
 20 16  2  0
 17 16  1  0
 17 21  1  0
  3 22  1  0
  4 23  1  0
 23 24  1  0
 23 25  1  0
 23 26  1  0
  7 27  1  0
 27 28  1  0
 27 29  1  0
 27 30  1  0
  8 31  1  0
  6 32  1  0
M  END
>  <SMILES>  (2) 
Cc1cc(OCC2CNC(=O)O2)cc(C)c1O

>  <Molecular Weight>  (2) 
237.3

>  <Substrate_ID>  (2) 
MOL0001

>  <Substrate>  (2) 


>  <Substrate_SMILES>  (2) 
Cc1cc(C)cc(OCC2CNC(=O)O2)c1

>  <Reaction>  (2) 
aromatic_hydroxylation_(para_to_oxygen),aromatic hydroxylation

>  <Score>  (2) 
0.2517

>  <Reaction_Score>  (2) 
0.2511

>  <Bond_Score>  (2) 
0.2523

>  <Rank>  (2) 
2

>  <Subtype>  (2) 
REACTION

>  <Subtype_Scores>  (2) 
[REACTION] SOM_score: 0.2523, Reaction_score: 0.2511, Score: 0.2517


$$$$
