
     RDKit          2D

 60 64  0  0  0  0  0  0  0  0999 V2000
   -0.0967    5.1517    0.0000 C   0  0  0  0  0  0  0  0  0 35  0  0
   -1.2114    6.1554    0.0000 O   0  0  0  0  0  0  0  0  0  4  0  0
    1.3299    5.6152    0.0000 C   0  0  0  0  0  0  0  0  0 32  0  0
   -0.4086    3.6844    0.0000 C   0  0  0  0  0  0  0  0  0 34  0  0
    2.4446    4.6115    0.0000 C   0  0  0  0  0  0  0  0  0 16  0  0
    1.6418    7.0824    0.0000 O   0  0  0  0  0  0  0  0  0  3  0  0
   -1.8351    3.2209    0.0000 N   0  0  0  0  0  0  0  0  0  6  0  0
    0.7062    2.6807    0.0000 C   0  0  0  0  0  0  0  0  0 33  0  0
    2.1328    3.1443    0.0000 C   0  0  0  0  0  0  0  0  0 17  0  0
    3.8712    5.0750    0.0000 H   0  0  0  0  0  0  0  0  0  0  0  0
    3.0684    7.5459    0.0000 C   0  0  0  0  0  0  0  0  0 22  0  0
   -2.1470    1.7537    0.0000 C   0  0  0  0  0  0  0  0  0 28  0  0
    0.3943    1.2135    0.0000 C   0  0  0  0  0  0  0  0  0 29  0  0
    3.2475    2.1406    0.0000 H   0  0  0  0  0  0  0  0  0  0  0  0
    4.4949    8.0095    0.0000 C   0  0  0  0  0  0  0  0  0 18  0  0
    3.5319    6.1194    0.0000 H   0  0  0  0  0  0  0  0  0  0  0  0
    2.6048    8.9725    0.0000 H   0  0  0  0  0  0  0  0  0  0  0  0
   -3.5736    1.2902    0.0000 N   0  0  0  0  0  0  0  0  0 10  0  0
   -1.0323    0.7500    0.0000 N   0  0  0  0  0  0  0  0  0 12  0  0
    1.2760    0.0000    0.0000 N   0  0  0  0  0  0  0  0  0  7  0  0
    5.9215    8.4730    0.0000 C   0  0  0  0  0  0  0  0  0 23  0  0
    4.9585    6.5829    0.0000 H   0  0  0  0  0  0  0  0  0  0  0  0
    4.0314    9.4360    0.0000 H   0  0  0  0  0  0  0  0  0  0  0  0
   -4.6883    2.2939    0.0000 C   0  0  0  0  0  0  0  0  0 27  0  0
   -3.8855   -0.1771    0.0000 H   0  0  0  0  0  0  0  0  0  0  0  0
   -1.0323   -0.7500    0.0000 C   0  0  0  0  0  0  0  0  0 26  0  0
    0.3943   -1.2135    0.0000 C   0  0  0  0  0  0  0  0  0 19  0  0
    7.3481    8.9365    0.0000 N   0  0  0  0  0  0  0  0  0 11  0  0
    5.2876    9.8324    0.0000 H   0  0  0  0  0  0  0  0  0  0  0  0
    6.2077    7.0005    0.0000 H   0  0  0  0  0  0  0  0  0  0  0  0
   -4.3764    3.7611    0.0000 O   0  0  0  0  0  0  0  0  0  1  0  0
   -6.1149    1.8303    0.0000 C   0  0  0  0  0  0  0  0  0 30  0  0
   -1.3442   -2.2172    0.0000 H   0  0  0  0  0  0  0  0  0  0  0  0
   -2.5241   -0.5932    0.0000 H   0  0  0  0  0  0  0  0  0  0  0  0
    1.6933   -1.9635    0.0000 H   0  0  0  0  0  0  0  0  0  0  0  0
   -0.2158   -2.5838    0.0000 H   0  0  0  0  0  0  0  0  0  0  0  0
    8.4628    7.9328    0.0000 C   0  0  0  0  0  0  0  0  0 24  0  0
    7.6600   10.4037    0.0000 C   0  0  0  0  0  0  0  0  0 25  0  0
   -7.2296    2.8340    0.0000 C   0  0  0  0  0  0  0  0  0 14  0  0
   -6.4268    0.3631    0.0000 C   0  0  0  0  0  0  0  0  0 15  0  0
    9.8894    8.3963    0.0000 C   0  0  0  0  0  0  0  0  0 20  0  0
    9.1670    6.6084    0.0000 H   0  0  0  0  0  0  0  0  0  0  0  0
    7.4022    6.8721    0.0000 H   0  0  0  0  0  0  0  0  0  0  0  0
    9.0866   10.8673    0.0000 C   0  0  0  0  0  0  0  0  0 21  0  0
    6.1784   10.6384    0.0000 H   0  0  0  0  0  0  0  0  0  0  0  0
    7.4512   11.8891    0.0000 H   0  0  0  0  0  0  0  0  0  0  0  0
   -8.6562    2.3705    0.0000 N   0  0  0  0  0  0  0  0  0  8  0  0
   -6.9177    4.3013    0.0000 H   0  0  0  0  0  0  0  0  0  0  0  0
   -7.8533   -0.1004    0.0000 N   0  0  0  0  0  0  0  0  0  9  0  0
   -5.3120   -0.6406    0.0000 H   0  0  0  0  0  0  0  0  0  0  0  0
   10.2013    9.8636    0.0000 O   0  0  0  0  0  0  0  0  0  2  0  0
   11.3885    8.3440    0.0000 H   0  0  0  0  0  0  0  0  0  0  0  0
   10.0982    6.9109    0.0000 H   0  0  0  0  0  0  0  0  0  0  0  0
    8.3824   12.1917    0.0000 H   0  0  0  0  0  0  0  0  0  0  0  0
   10.2686   11.7908    0.0000 H   0  0  0  0  0  0  0  0  0  0  0  0
   -8.9681    0.9033    0.0000 C   0  0  0  0  0  0  0  0  0 31  0  0
  -10.3946    0.4398    0.0000 N   0  0  0  0  0  0  0  0  0  5  0  0
  -11.5094    1.4435    0.0000 H   0  0  0  0  0  0  0  0  0  0  0  0
  -10.7065   -1.0275    0.0000 H   0  0  0  0  0  0  0  0  0  0  0  0
   -0.8995    7.6226    0.0000 H   0  0  0  0  0  0  0  0  0  0  0  0
  1  2  1  0
  3  1  2  0
  1  4  1  0
  5  3  1  0
  3  6  1  0
  7  4  1  0
  4  8  2  0
  9  5  2  0
  5 10  1  0
  6 11  1  0
 12  7  2  0
  8  9  1  0
  8 13  1  0
  9 14  1  0
 11 15  1  0
 11 16  1  0
 11 17  1  0
 18 12  1  0
 19 12  1  0
 13 20  2  0
 19 13  1  0
 15 21  1  0
 15 22  1  0
 15 23  1  0
 24 18  1  0
 18 25  1  0
 26 19  1  0
 20 27  1  0
 21 28  1  0
 21 29  1  0
 21 30  1  0
 31 24  2  0
 24 32  1  0
 27 26  1  0
 26 33  1  0
 26 34  1  0
 27 35  1  0
 27 36  1  0
 28 37  1  0
 38 28  1  0
 32 39  2  0
 40 32  1  0
 37 41  1  0
 37 42  1  0
 37 43  1  0
 44 38  1  0
 38 45  1  0
 38 46  1  0
 39 47  1  0
 39 48  1  0
 49 40  2  0
 40 50  1  0
 41 51  1  0
 41 52  1  0
 41 53  1  0
 51 44  1  0
 44 54  1  0
 44 55  1  0
 47 56  2  0
 56 49  1  0
 56 57  1  0
 57 58  1  0
 57 59  1  0
  2 60  1  0
M  END
>  <SMILES>  (1) 
Nc1ncc(C(=O)NC2=Nc3c(ccc(OCCCN4CCOCC4)c3O)C3=NCCN23)cn1

>  <Molecular Weight>  (1) 
466.5

>  <Substrate_ID>  (1) 
MOL0018

>  <Substrate>  (1) 


>  <Substrate_SMILES>  (1) 
COc1c(OCCCN2CCOCC2)ccc2c1N=C(NC(=O)c1cnc(N)nc1)N1CCN=C21

>  <Reaction>  (1) 
O-demethylation

>  <Score>  (1) 
0.4221

>  <Reaction_Score>  (1) 
0.4299

>  <Bond_Score>  (1) 
0.4145

>  <Rank>  (1) 
1

>  <Subtype>  (1) 
REACTION

>  <Subtype_Scores>  (1) 
[REACTION] SOM_score: 0.4145, Reaction_score: 0.4299, Score: 0.4221


$$$$

     RDKit          2D

 51 54  0  0  0  0  0  0  0  0999 V2000
    7.3481    8.9365    0.0000 O   0  0  0  0  0  0  0  0  0 36  0  0
    5.9215    8.4730    0.0000 C   0  0  0  0  0  0  0  0  0 23  0  0
    4.4949    8.0095    0.0000 C   0  0  0  0  0  0  0  0  0 18  0  0
    5.4580    9.8996    0.0000 H   0  0  0  0  0  0  0  0  0  0  0  0
    6.3850    7.0464    0.0000 H   0  0  0  0  0  0  0  0  0  0  0  0
    3.0684    7.5459    0.0000 C   0  0  0  0  0  0  0  0  0 22  0  0
    4.0314    9.4360    0.0000 H   0  0  0  0  0  0  0  0  0  0  0  0
    4.9585    6.5829    0.0000 H   0  0  0  0  0  0  0  0  0  0  0  0
    1.6418    7.0824    0.0000 O   0  0  0  0  0  0  0  0  0  3  0  0
    3.5319    6.1194    0.0000 H   0  0  0  0  0  0  0  0  0  0  0  0
    2.6048    8.9725    0.0000 H   0  0  0  0  0  0  0  0  0  0  0  0
    1.3299    5.6152    0.0000 C   0  0  0  0  0  0  0  0  0 32  0  0
    2.4446    4.6115    0.0000 C   0  0  0  0  0  0  0  0  0 16  0  0
   -0.0967    5.1517    0.0000 C   0  0  0  0  0  0  0  0  0 35  0  0
    2.1328    3.1443    0.0000 C   0  0  0  0  0  0  0  0  0 17  0  0
    3.8712    5.0750    0.0000 H   0  0  0  0  0  0  0  0  0  0  0  0
   -1.2114    6.1554    0.0000 O   0  0  0  0  0  0  0  0  0  4  0  0
   -0.4086    3.6844    0.0000 C   0  0  0  0  0  0  0  0  0 34  0  0
    0.7062    2.6807    0.0000 C   0  0  0  0  0  0  0  0  0 33  0  0
    3.2475    2.1406    0.0000 H   0  0  0  0  0  0  0  0  0  0  0  0
   -0.8995    7.6226    0.0000 C   0  0  0  0  0  0  0  0  0 13  0  0
   -1.8351    3.2209    0.0000 N   0  0  0  0  0  0  0  0  0  6  0  0
    0.3943    1.2135    0.0000 C   0  0  0  0  0  0  0  0  0 29  0  0
   -0.5877    9.0898    0.0000 H   0  0  0  0  0  0  0  0  0  0  0  0
   -2.3668    7.9344    0.0000 H   0  0  0  0  0  0  0  0  0  0  0  0
    0.5677    7.3107    0.0000 H   0  0  0  0  0  0  0  0  0  0  0  0
   -2.1470    1.7537    0.0000 C   0  0  0  0  0  0  0  0  0 28  0  0
    1.2760    0.0000    0.0000 N   0  0  0  0  0  0  0  0  0  7  0  0
   -1.0323    0.7500    0.0000 N   0  0  0  0  0  0  0  0  0 12  0  0
   -3.5736    1.2902    0.0000 N   0  0  0  0  0  0  0  0  0 10  0  0
    0.3943   -1.2135    0.0000 C   0  0  0  0  0  0  0  0  0 19  0  0
   -1.0323   -0.7500    0.0000 C   0  0  0  0  0  0  0  0  0 26  0  0
   -4.6883    2.2939    0.0000 C   0  0  0  0  0  0  0  0  0 27  0  0
   -3.8855   -0.1771    0.0000 H   0  0  0  0  0  0  0  0  0  0  0  0
    1.6933   -1.9635    0.0000 H   0  0  0  0  0  0  0  0  0  0  0  0
   -0.2158   -2.5838    0.0000 H   0  0  0  0  0  0  0  0  0  0  0  0
   -1.3442   -2.2172    0.0000 H   0  0  0  0  0  0  0  0  0  0  0  0
   -2.5241   -0.5932    0.0000 H   0  0  0  0  0  0  0  0  0  0  0  0
   -4.3764    3.7611    0.0000 O   0  0  0  0  0  0  0  0  0  1  0  0
   -6.1149    1.8303    0.0000 C   0  0  0  0  0  0  0  0  0 30  0  0
   -7.2296    2.8340    0.0000 C   0  0  0  0  0  0  0  0  0 14  0  0
   -6.4268    0.3631    0.0000 C   0  0  0  0  0  0  0  0  0 15  0  0
   -8.6562    2.3705    0.0000 N   0  0  0  0  0  0  0  0  0  8  0  0
   -6.9177    4.3013    0.0000 H   0  0  0  0  0  0  0  0  0  0  0  0
   -7.8533   -0.1004    0.0000 N   0  0  0  0  0  0  0  0  0  9  0  0
   -5.3120   -0.6406    0.0000 H   0  0  0  0  0  0  0  0  0  0  0  0
   -8.9681    0.9033    0.0000 C   0  0  0  0  0  0  0  0  0 31  0  0
  -10.3946    0.4398    0.0000 N   0  0  0  0  0  0  0  0  0  5  0  0
  -11.5094    1.4435    0.0000 H   0  0  0  0  0  0  0  0  0  0  0  0
  -10.7065   -1.0275    0.0000 H   0  0  0  0  0  0  0  0  0  0  0  0
    8.4628    7.9328    0.0000 H   0  0  0  0  0  0  0  0  0  0  0  0
  1  2  1  0
  3  2  1  0
  2  4  1  0
  2  5  1  0
  6  3  1  0
  3  7  1  0
  3  8  1  0
  9  6  1  0
  6 10  1  0
  6 11  1  0
 12  9  1  0
 13 12  2  0
 12 14  1  0
 15 13  1  0
 13 16  1  0
 14 17  1  0
 14 18  2  0
 19 15  2  0
 15 20  1  0
 17 21  1  0
 22 18  1  0
 18 19  1  0
 19 23  1  0
 21 24  1  0
 21 25  1  0
 21 26  1  0
 27 22  2  0
 23 28  2  0
 29 23  1  0
 30 27  1  0
 29 27  1  0
 28 31  1  0
 32 29  1  0
 33 30  1  0
 30 34  1  0
 31 32  1  0
 31 35  1  0
 31 36  1  0
 32 37  1  0
 32 38  1  0
 39 33  2  0
 33 40  1  0
 40 41  2  0
 42 40  1  0
 41 43  1  0
 41 44  1  0
 45 42  2  0
 42 46  1  0
 43 47  2  0
 47 45  1  0
 47 48  1  0
 48 49  1  0
 48 50  1  0
  1 51  1  0
M  END
>  <SMILES>  (2) 
COc1c(OCCCO)ccc2c1N=C(NC(=O)c1cnc(N)nc1)N1CCN=C21

>  <Molecular Weight>  (2) 
411.4

>  <Substrate_ID>  (2) 
MOL0018

>  <Substrate>  (2) 


>  <Substrate_SMILES>  (2) 
COc1c(OCCCN2CCOCC2)ccc2c1N=C(NC(=O)c1cnc(N)nc1)N1CCN=C21

>  <Reaction>  (2) 
N-dealkylation_(tertiaryN-CH2-alkyl)

>  <Score>  (2) 
0.3278

>  <Reaction_Score>  (2) 
0.3251

>  <Bond_Score>  (2) 
0.3305

>  <Rank>  (2) 
2

>  <Subtype>  (2) 
REACTION

>  <Subtype_Scores>  (2) 
[REACTION] SOM_score: 0.3305, Reaction_score: 0.3251, Score: 0.3278


$$$$

     RDKit          2D

 49 52  0  0  0  0  0  0  0  0999 V2000
    5.9215    8.4730    0.0000 C   0  0  0  0  0  0  0  0  0 23  0  0
    6.2334    9.9402    0.0000 O   0  0  0  0  0  0  0  0  0 36  0  0
    4.4949    8.0095    0.0000 C   0  0  0  0  0  0  0  0  0 18  0  0
    7.0362    7.4693    0.0000 H   0  0  0  0  0  0  0  0  0  0  0  0
    3.0684    7.5459    0.0000 C   0  0  0  0  0  0  0  0  0 22  0  0
    4.0314    9.4360    0.0000 H   0  0  0  0  0  0  0  0  0  0  0  0
    4.9585    6.5829    0.0000 H   0  0  0  0  0  0  0  0  0  0  0  0
    1.6418    7.0824    0.0000 O   0  0  0  0  0  0  0  0  0  3  0  0
    3.5319    6.1194    0.0000 H   0  0  0  0  0  0  0  0  0  0  0  0
    2.6048    8.9725    0.0000 H   0  0  0  0  0  0  0  0  0  0  0  0
    1.3299    5.6152    0.0000 C   0  0  0  0  0  0  0  0  0 32  0  0
    2.4446    4.6115    0.0000 C   0  0  0  0  0  0  0  0  0 16  0  0
   -0.0967    5.1517    0.0000 C   0  0  0  0  0  0  0  0  0 35  0  0
    2.1328    3.1443    0.0000 C   0  0  0  0  0  0  0  0  0 17  0  0
    3.8712    5.0750    0.0000 H   0  0  0  0  0  0  0  0  0  0  0  0
   -1.2114    6.1554    0.0000 O   0  0  0  0  0  0  0  0  0  4  0  0
   -0.4086    3.6844    0.0000 C   0  0  0  0  0  0  0  0  0 34  0  0
    0.7062    2.6807    0.0000 C   0  0  0  0  0  0  0  0  0 33  0  0
    3.2475    2.1406    0.0000 H   0  0  0  0  0  0  0  0  0  0  0  0
   -0.8995    7.6226    0.0000 C   0  0  0  0  0  0  0  0  0 13  0  0
   -1.8351    3.2209    0.0000 N   0  0  0  0  0  0  0  0  0  6  0  0
    0.3943    1.2135    0.0000 C   0  0  0  0  0  0  0  0  0 29  0  0
   -0.5877    9.0898    0.0000 H   0  0  0  0  0  0  0  0  0  0  0  0
   -2.3668    7.9344    0.0000 H   0  0  0  0  0  0  0  0  0  0  0  0
    0.5677    7.3107    0.0000 H   0  0  0  0  0  0  0  0  0  0  0  0
   -2.1470    1.7537    0.0000 C   0  0  0  0  0  0  0  0  0 28  0  0
    1.2760    0.0000    0.0000 N   0  0  0  0  0  0  0  0  0  7  0  0
   -1.0323    0.7500    0.0000 N   0  0  0  0  0  0  0  0  0 12  0  0
   -3.5736    1.2902    0.0000 N   0  0  0  0  0  0  0  0  0 10  0  0
    0.3943   -1.2135    0.0000 C   0  0  0  0  0  0  0  0  0 19  0  0
   -1.0323   -0.7500    0.0000 C   0  0  0  0  0  0  0  0  0 26  0  0
   -4.6883    2.2939    0.0000 C   0  0  0  0  0  0  0  0  0 27  0  0
   -3.8855   -0.1771    0.0000 H   0  0  0  0  0  0  0  0  0  0  0  0
    1.6933   -1.9635    0.0000 H   0  0  0  0  0  0  0  0  0  0  0  0
   -0.2158   -2.5838    0.0000 H   0  0  0  0  0  0  0  0  0  0  0  0
   -1.3442   -2.2172    0.0000 H   0  0  0  0  0  0  0  0  0  0  0  0
   -2.5241   -0.5932    0.0000 H   0  0  0  0  0  0  0  0  0  0  0  0
   -4.3764    3.7611    0.0000 O   0  0  0  0  0  0  0  0  0  1  0  0
   -6.1149    1.8303    0.0000 C   0  0  0  0  0  0  0  0  0 30  0  0
   -7.2296    2.8340    0.0000 C   0  0  0  0  0  0  0  0  0 14  0  0
   -6.4268    0.3631    0.0000 C   0  0  0  0  0  0  0  0  0 15  0  0
   -8.6562    2.3705    0.0000 N   0  0  0  0  0  0  0  0  0  8  0  0
   -6.9177    4.3013    0.0000 H   0  0  0  0  0  0  0  0  0  0  0  0
   -7.8533   -0.1004    0.0000 N   0  0  0  0  0  0  0  0  0  9  0  0
   -5.3120   -0.6406    0.0000 H   0  0  0  0  0  0  0  0  0  0  0  0
   -8.9681    0.9033    0.0000 C   0  0  0  0  0  0  0  0  0 31  0  0
  -10.3946    0.4398    0.0000 N   0  0  0  0  0  0  0  0  0  5  0  0
  -11.5094    1.4435    0.0000 H   0  0  0  0  0  0  0  0  0  0  0  0
  -10.7065   -1.0275    0.0000 H   0  0  0  0  0  0  0  0  0  0  0  0
  1  2  2  0
  3  1  1  0
  1  4  1  0
  5  3  1  0
  3  6  1  0
  3  7  1  0
  8  5  1  0
  5  9  1  0
  5 10  1  0
 11  8  1  0
 12 11  2  0
 11 13  1  0
 14 12  1  0
 12 15  1  0
 13 16  1  0
 13 17  2  0
 18 14  2  0
 14 19  1  0
 16 20  1  0
 21 17  1  0
 17 18  1  0
 18 22  1  0
 20 23  1  0
 20 24  1  0
 20 25  1  0
 26 21  2  0
 22 27  2  0
 28 22  1  0
 29 26  1  0
 28 26  1  0
 27 30  1  0
 31 28  1  0
 32 29  1  0
 29 33  1  0
 30 31  1  0
 30 34  1  0
 30 35  1  0
 31 36  1  0
 31 37  1  0
 38 32  2  0
 32 39  1  0
 39 40  2  0
 41 39  1  0
 40 42  1  0
 40 43  1  0
 44 41  2  0
 41 45  1  0
 42 46  2  0
 46 44  1  0
 46 47  1  0
 47 48  1  0
 47 49  1  0
M  END
>  <SMILES>  (3) 
COc1c(OCCC=O)ccc2c1N=C(NC(=O)c1cnc(N)nc1)N1CCN=C21

>  <Molecular Weight>  (3) 
409.4

>  <Substrate_ID>  (3) 
MOL0018

>  <Substrate>  (3) 


>  <Substrate_SMILES>  (3) 
COc1c(OCCCN2CCOCC2)ccc2c1N=C(NC(=O)c1cnc(N)nc1)N1CCN=C21

>  <Reaction>  (3) 
N-dealkylation_(hetero_ring)

>  <Score>  (3) 
0.3278

>  <Reaction_Score>  (3) 
0.3251

>  <Bond_Score>  (3) 
0.3305

>  <Rank>  (3) 
2

>  <Subtype>  (3) 
REACTION

>  <Subtype_Scores>  (3) 
[REACTION] SOM_score: 0.3305, Reaction_score: 0.3251, Score: 0.3278


$$$$
