
     RDKit          2D

  9  8  0  0  0  0  0  0  0  0999 V2000
    0.0000    0.0000    0.0000 C   0  0  0  0  0  0  0  0  0  2  0  0
   -1.5000    0.0000    0.0000 O   0  0  0  0  0  0  0  0  0  1  0  0
    1.5000    0.0000    0.0000 C   0  0  0  0  0  0  0  0  0  4  0  0
    0.0000    1.5000    0.0000 H   0  0  0  0  0  0  0  0  0  0  0  0
   -0.0000   -1.5000    0.0000 H   0  0  0  0  0  0  0  0  0  0  0  0
    3.0000    0.0000    0.0000 H   0  0  0  0  0  0  0  0  0  0  0  0
    1.5000   -1.5000    0.0000 H   0  0  0  0  0  0  0  0  0  0  0  0
    1.5000    1.5000    0.0000 H   0  0  0  0  0  0  0  0  0  0  0  0
   -2.2500   -1.2990    0.0000 H   0  0  0  0  0  0  0  0  0  0  0  0
  1  2  1  0
  1  3  1  0
  1  4  1  0
  1  5  1  0
  3  6  1  0
  3  7  1  0
  3  8  1  0
  2  9  1  0
M  END
>  <SMILES>  (1) 
CCO

>  <Molecular Weight>  (1) 
46.1

>  <Substrate_ID>  (1) 
MOL0101

>  <Substrate>  (1) 


>  <Substrate_SMILES>  (1) 
CCOCC

>  <Reaction>  (1) 
O-dealkylation_(aliphatic),O-dealkylation_(ether)

>  <Score>  (1) 
0.4147

>  <Reaction_Score>  (1) 
0.3363

>  <Bond_Score>  (1) 
0.5113

>  <Rank>  (1) 
1

>  <Subtype>  (1) 
REACTION

>  <Subtype_Scores>  (1) 
[REACTION] SOM_score: 0.5113, Reaction_score: 0.3363, Score: 0.4147


$$$$
