
     RDKit          2D

 36 37  0  0  0  0  0  0  0  0999 V2000
    1.5000    0.0000    0.0000 C   0  0  0  0  0  0  0  0  0 18  0  0
    3.0000    0.0000    0.0000 O   0  0  0  0  0  0  0  0  0  1  0  0
    0.7500   -1.2990    0.0000 C   0  0  0  0  0  0  0  0  0 12  0  0
    0.7500    1.2990    0.0000 C   0  0  0  0  0  0  0  0  0 21  0  0
   -0.7500   -1.2990    0.0000 C   0  0  0  0  0  0  0  0  0 15  0  0
    1.5000   -2.5981    0.0000 H   0  0  0  0  0  0  0  0  0  0  0  0
   -0.7500    1.2990    0.0000 C   0  0  0  0  0  0  0  0  0 19  0  0
    1.5000    2.5981    0.0000 O   0  0  0  0  0  0  0  0  0  3  0  0
   -1.5000   -2.5981    0.0000 C   0  0  0  0  0  0  0  0  0 14  0  0
   -1.5000    0.0000    0.0000 C   0  0  0  0  0  0  0  0  0 13  0  0
   -1.5000    2.5981    0.0000 O   0  0  0  0  0  0  0  0  0  2  0  0
    0.7500    3.8971    0.0000 C   0  0  0  0  0  0  0  0  0 10  0  0
   -2.2500   -3.8971    0.0000 C   0  0  0  0  0  0  0  0  0 17  0  0
   -2.7990   -1.8481    0.0000 H   0  0  0  0  0  0  0  0  0  0  0  0
   -0.2010   -3.3481    0.0000 H   0  0  0  0  0  0  0  0  0  0  0  0
   -3.0000    0.0000    0.0000 H   0  0  0  0  0  0  0  0  0  0  0  0
   -3.0000    2.5981    0.0000 C   0  0  0  0  0  0  0  0  0  9  0  0
    0.0000    5.1962    0.0000 H   0  0  0  0  0  0  0  0  0  0  0  0
    2.0490    4.6471    0.0000 H   0  0  0  0  0  0  0  0  0  0  0  0
   -0.5490    3.1471    0.0000 H   0  0  0  0  0  0  0  0  0  0  0  0
   -3.7500   -3.8971    0.0000 C   0  0  0  0  0  0  0  0  0 11  0  0
   -1.5000   -5.1962    0.0000 C   0  0  0  0  0  0  0  0  0 20  0  0
   -4.5000    2.5981    0.0000 H   0  0  0  0  0  0  0  0  0  0  0  0
   -3.0000    4.0981    0.0000 H   0  0  0  0  0  0  0  0  0  0  0  0
   -3.0000    1.0981    0.0000 H   0  0  0  0  0  0  0  0  0  0  0  0
   -4.5000   -5.1962    0.0000 N   0  0  0  0  0  0  0  0  0  6  0  0
   -4.5000   -2.5981    0.0000 H   0  0  0  0  0  0  0  0  0  0  0  0
   -2.2500   -6.4952    0.0000 N   0  0  0  0  0  0  0  0  0  7  0  0
   -0.0000   -5.1962    0.0000 N   0  0  0  0  0  0  0  0  0  5  0  0
   -3.7500   -6.4952    0.0000 C   0  0  0  0  0  0  0  0  0 16  0  0
    0.7500   -6.4952    0.0000 H   0  0  0  0  0  0  0  0  0  0  0  0
    0.7500   -3.8971    0.0000 H   0  0  0  0  0  0  0  0  0  0  0  0
   -4.5000   -7.7942    0.0000 N   0  0  0  0  0  0  0  0  0  4  0  0
   -6.0000   -7.7942    0.0000 H   0  0  0  0  0  0  0  0  0  0  0  0
   -3.7500   -9.0933    0.0000 H   0  0  0  0  0  0  0  0  0  0  0  0
    3.7500   -1.2990    0.0000 H   0  0  0  0  0  0  0  0  0  0  0  0
  1  2  1  0
  1  3  2  0
  4  1  1  0
  3  5  1  0
  3  6  1  0
  7  4  2  0
  4  8  1  0
  5  9  1  0
  5 10  2  0
 10  7  1  0
  7 11  1  0
  8 12  1  0
  9 13  1  0
  9 14  1  0
  9 15  1  0
 10 16  1  0
 11 17  1  0
 12 18  1  0
 12 19  1  0
 12 20  1  0
 13 21  2  0
 22 13  1  0
 17 23  1  0
 17 24  1  0
 17 25  1  0
 21 26  1  0
 21 27  1  0
 28 22  2  0
 22 29  1  0
 26 30  2  0
 30 28  1  0
 29 31  1  0
 29 32  1  0
 30 33  1  0
 33 34  1  0
 33 35  1  0
  2 36  1  0
M  END
>  <SMILES>  (1) 
COc1cc(Cc2cnc(N)nc2N)cc(O)c1OC

>  <Molecular Weight>  (1) 
276.3

>  <Substrate_ID>  (1) 
MOL0046

>  <Substrate>  (1) 


>  <Substrate_SMILES>  (1) 
COc1cc(Cc2cnc(N)nc2N)cc(OC)c1OC

>  <Reaction>  (1) 
O-demethylation

>  <Score>  (1) 
0.4459

>  <Reaction_Score>  (1) 
0.4573

>  <Bond_Score>  (1) 
0.4348

>  <Rank>  (1) 
1

>  <Subtype>  (1) 
REACTION

>  <Subtype_Scores>  (1) 
[REACTION] SOM_score: 0.4348, Reaction_score: 0.4573, Score: 0.4459


$$$$

     RDKit          2D

 36 37  0  0  0  0  0  0  0  0999 V2000
    1.5000    0.0000    0.0000 C   0  0  0  0  0  0  0  0  0 21  0  0
    3.0000    0.0000    0.0000 O   0  0  0  0  0  0  0  0  0  3  0  0
    0.7500   -1.2990    0.0000 C   0  0  0  0  0  0  0  0  0 19  0  0
    0.7500    1.2990    0.0000 C   0  0  0  0  0  0  0  0  0 18  0  0
   -0.7500   -1.2990    0.0000 C   0  0  0  0  0  0  0  0  0 13  0  0
    1.5000   -2.5981    0.0000 O   0  0  0  0  0  0  0  0  0  2  0  0
    1.5000    2.5981    0.0000 O   0  0  0  0  0  0  0  0  0  1  0  0
   -0.7500    1.2990    0.0000 C   0  0  0  0  0  0  0  0  0 12  0  0
   -1.5000    0.0000    0.0000 C   0  0  0  0  0  0  0  0  0 15  0  0
   -1.5000   -2.5981    0.0000 H   0  0  0  0  0  0  0  0  0  0  0  0
    0.7500   -3.8971    0.0000 C   0  0  0  0  0  0  0  0  0  9  0  0
    0.7500    3.8971    0.0000 C   0  0  0  0  0  0  0  0  0  8  0  0
   -1.5000    2.5981    0.0000 H   0  0  0  0  0  0  0  0  0  0  0  0
   -3.0000    0.0000    0.0000 C   0  0  0  0  0  0  0  0  0 14  0  0
   -0.0000   -5.1962    0.0000 H   0  0  0  0  0  0  0  0  0  0  0  0
    2.0490   -4.6471    0.0000 H   0  0  0  0  0  0  0  0  0  0  0  0
   -0.5490   -3.1471    0.0000 H   0  0  0  0  0  0  0  0  0  0  0  0
    0.0000    5.1962    0.0000 H   0  0  0  0  0  0  0  0  0  0  0  0
    2.0490    4.6471    0.0000 H   0  0  0  0  0  0  0  0  0  0  0  0
   -0.5490    3.1471    0.0000 H   0  0  0  0  0  0  0  0  0  0  0  0
   -4.5000    0.0000    0.0000 C   0  0  0  0  0  0  0  0  0 17  0  0
   -3.0000    1.5000    0.0000 H   0  0  0  0  0  0  0  0  0  0  0  0
   -3.0000   -1.5000    0.0000 H   0  0  0  0  0  0  0  0  0  0  0  0
   -5.2500    1.2990    0.0000 C   0  0  0  0  0  0  0  0  0 11  0  0
   -5.2500   -1.2990    0.0000 C   0  0  0  0  0  0  0  0  0 20  0  0
   -6.7500    1.2990    0.0000 N   0  0  0  0  0  0  0  0  0  6  0  0
   -4.5000    2.5981    0.0000 H   0  0  0  0  0  0  0  0  0  0  0  0
   -6.7500   -1.2990    0.0000 N   0  0  0  0  0  0  0  0  0  7  0  0
   -4.5000   -2.5981    0.0000 N   0  0  0  0  0  0  0  0  0  5  0  0
   -7.5000    0.0000    0.0000 C   0  0  0  0  0  0  0  0  0 16  0  0
   -5.2500   -3.8971    0.0000 H   0  0  0  0  0  0  0  0  0  0  0  0
   -3.0000   -2.5981    0.0000 H   0  0  0  0  0  0  0  0  0  0  0  0
   -9.0000    0.0000    0.0000 N   0  0  0  0  0  0  0  0  0  4  0  0
   -9.7500    1.2990    0.0000 H   0  0  0  0  0  0  0  0  0  0  0  0
   -9.7500   -1.2990    0.0000 H   0  0  0  0  0  0  0  0  0  0  0  0
    3.7500   -1.2990    0.0000 H   0  0  0  0  0  0  0  0  0  0  0  0
  1  2  1  0
  3  1  2  0
  1  4  1  0
  5  3  1  0
  3  6  1  0
  7  4  1  0
  4  8  2  0
  9  5  2  0
  5 10  1  0
  6 11  1  0
  7 12  1  0
  8  9  1  0
  8 13  1  0
  9 14  1  0
 11 15  1  0
 11 16  1  0
 11 17  1  0
 12 18  1  0
 12 19  1  0
 12 20  1  0
 14 21  1  0
 14 22  1  0
 14 23  1  0
 21 24  2  0
 25 21  1  0
 24 26  1  0
 24 27  1  0
 28 25  2  0
 25 29  1  0
 26 30  2  0
 30 28  1  0
 29 31  1  0
 29 32  1  0
 30 33  1  0
 33 34  1  0
 33 35  1  0
  2 36  1  0
M  END
>  <SMILES>  (2) 
COc1cc(Cc2cnc(N)nc2N)cc(OC)c1O

>  <Molecular Weight>  (2) 
276.3

>  <Substrate_ID>  (2) 
MOL0046

>  <Substrate>  (2) 


>  <Substrate_SMILES>  (2) 
COc1cc(Cc2cnc(N)nc2N)cc(OC)c1OC

>  <Reaction>  (2) 
O-demethylation

>  <Score>  (2) 
0.4357

>  <Reaction_Score>  (2) 
0.4474

>  <Bond_Score>  (2) 
0.4243

>  <Rank>  (2) 
2

>  <Subtype>  (2) 
REACTION

>  <Subtype_Scores>  (2) 
[REACTION] SOM_score: 0.4243, Reaction_score: 0.4474, Score: 0.4357


$$$$
