
     RDKit          2D

 43 44  0  0  0  0  0  0  0  0999 V2000
   -1.4462    4.2990    0.0000 N   0  0  0  0  0  0  0  0  0  5  0  0
   -0.1471    3.5490    0.0000 C   0  0  0  0  0  0  0  0  0 18  0  0
   -1.4462    5.7990    0.0000 C   0  0  0  0  0  0  0  0  0 17  0  0
    1.1519    2.7990    0.0000 C   0  0  0  0  0  0  0  0  0 14  0  0
    0.6029    4.8481    0.0000 H   0  0  0  0  0  0  0  0  0  0  0  0
   -0.8971    2.2500    0.0000 H   0  0  0  0  0  0  0  0  0  0  0  0
   -1.4462    7.2990    0.0000 C   0  0  0  0  0  0  0  0  0 13  0  0
    0.0538    5.7990    0.0000 H   0  0  0  0  0  0  0  0  0  0  0  0
   -2.9462    5.7990    0.0000 H   0  0  0  0  0  0  0  0  0  0  0  0
    2.4510    2.0490    0.0000 C   0  0  0  0  0  0  0  0  0 15  0  0
    0.4019    1.5000    0.0000 H   0  0  0  0  0  0  0  0  0  0  0  0
    1.9019    4.0981    0.0000 H   0  0  0  0  0  0  0  0  0  0  0  0
   -1.4462    8.7990    0.0000 O   0  0  0  0  0  0  0  0  0  2  0  0
    0.0538    7.2990    0.0000 H   0  0  0  0  0  0  0  0  0  0  0  0
   -2.9462    7.2990    0.0000 H   0  0  0  0  0  0  0  0  0  0  0  0
    3.7500    1.2990    0.0000 C   0  0  0  0  0  0  0  0  0 23  0  0
    1.5482    0.8511    0.0000 H   0  0  0  0  0  0  0  0  0  0  0  0
    3.2010    3.3481    0.0000 H   0  0  0  0  0  0  0  0  0  0  0  0
   -2.7452    9.5490    0.0000 H   0  0  0  0  0  0  0  0  0  0  0  0
    3.0000    0.0000    0.0000 N   0  0  0  0  0  0  0  0  0  4  0  0
    5.0490    0.5490    0.0000 C   0  0  0  0  0  0  0  0  0  7  0  0
    4.5000    2.5981    0.0000 H   0  0  0  0  0  0  0  0  0  0  0  0
    3.7500   -1.2990    0.0000 C   0  0  0  0  0  0  0  0  0 20  0  0
    1.5112   -0.1828    0.0000 H   0  0  0  0  0  0  0  0  0  0  0  0
    5.7828    0.2376    0.0000 H   0  0  0  0  0  0  0  0  0  0  0  0
    5.7990    1.8481    0.0000 H   0  0  0  0  0  0  0  0  0  0  0  0
    4.7142   -0.6189    0.0000 H   0  0  0  0  0  0  0  0  0  0  0  0
    3.0000   -2.5981    0.0000 C   0  0  0  0  0  0  0  0  0 22  0  0
    5.2500   -1.2990    0.0000 C   0  0  0  0  0  0  0  0  0 10  0  0
    1.5000   -2.5981    0.0000 C   0  0  0  0  0  0  0  0  0 12  0  0
    3.7500   -3.8971    0.0000 C   0  0  0  0  0  0  0  0  0 21  0  0
    6.0000   -2.5981    0.0000 C   0  0  0  0  0  0  0  0  0  8  0  0
    5.7298   -0.6624    0.0000 H   0  0  0  0  0  0  0  0  0  0  0  0
    0.7500   -3.8971    0.0000 C   0  0  0  0  0  0  0  0  0  9  0  0
    0.7500   -1.2990    0.0000 H   0  0  0  0  0  0  0  0  0  0  0  0
    5.2500   -3.8971    0.0000 N   0  0  0  0  0  0  0  0  0  3  0  0
    3.0000   -5.1962    0.0000 C   0  0  0  0  0  0  0  0  0 11  0  0
    7.5000   -2.5981    0.0000 H   0  0  0  0  0  0  0  0  0  0  0  0
    1.5000   -5.1962    0.0000 C   0  0  0  0  0  0  0  0  0 19  0  0
   -0.7500   -3.8971    0.0000 H   0  0  0  0  0  0  0  0  0  0  0  0
    3.7500   -6.4952    0.0000 H   0  0  0  0  0  0  0  0  0  0  0  0
    0.7500   -6.4952    0.0000 Cl  0  0  0  0  0  0  0  0  0  1  0  0
   -2.7452    3.5490    0.0000 H   0  0  0  0  0  0  0  0  0  0  0  0
  2  1  1  0
  1  3  1  0
  4  2  1  0
  2  5  1  0
  2  6  1  0
  3  7  1  0
  3  8  1  0
  3  9  1  0
 10  4  1  0
  4 11  1  0
  4 12  1  0
  7 13  1  0
  7 14  1  0
  7 15  1  0
 16 10  1  0
 10 17  1  0
 10 18  1  0
 13 19  1  0
 20 16  1  0
 16 21  1  0
 16 22  1  6
 23 20  1  0
 20 24  1  0
 21 25  1  0
 21 26  1  0
 21 27  1  0
 28 23  2  0
 23 29  1  0
 30 28  1  0
 31 28  1  0
 29 32  2  0
 29 33  1  0
 34 30  2  0
 30 35  1  0
 36 31  2  0
 31 37  1  0
 32 36  1  0
 32 38  1  0
 39 34  1  0
 34 40  1  0
 37 39  2  0
 37 41  1  0
 42 39  1  0
  1 43  1  0
M  END
>  <SMILES>  (1) 
CC(CCCNCCO)Nc1ccnc2cc(Cl)ccc12

>  <Molecular Weight>  (1) 
307.8

>  <Substrate_ID>  (1) 
MOL0037

>  <Substrate>  (1) 


>  <Substrate_SMILES>  (1) 
CCN(CCO)CCCC(C)Nc1ccnc2cc(Cl)ccc12

>  <Reaction>  (1) 
N-dealkylation_(tertiaryN-CH2-alkyl)

>  <Score>  (1) 
0.9221

>  <Reaction_Score>  (1) 
0.9126

>  <Bond_Score>  (1) 
0.9317

>  <Rank>  (1) 
1

>  <Subtype>  (1) 
REACTION

>  <Subtype_Scores>  (1) 
[REACTION] SOM_score: 0.9317, Reaction_score: 0.9126, Score: 0.9221


$$$$

     RDKit          2D

 42 43  0  0  0  0  0  0  0  0999 V2000
   -1.4462    4.2990    0.0000 N   0  0  0  0  0  0  0  0  0  5  0  0
   -0.1471    3.5490    0.0000 C   0  0  0  0  0  0  0  0  0 18  0  0
   -1.4462    5.7990    0.0000 C   0  0  0  0  0  0  0  0  0 16  0  0
    1.1519    2.7990    0.0000 C   0  0  0  0  0  0  0  0  0 14  0  0
    0.6029    4.8481    0.0000 H   0  0  0  0  0  0  0  0  0  0  0  0
   -0.8971    2.2500    0.0000 H   0  0  0  0  0  0  0  0  0  0  0  0
   -1.4462    7.2990    0.0000 C   0  0  0  0  0  0  0  0  0  6  0  0
    0.0538    5.7990    0.0000 H   0  0  0  0  0  0  0  0  0  0  0  0
   -2.9462    5.7990    0.0000 H   0  0  0  0  0  0  0  0  0  0  0  0
    2.4510    2.0490    0.0000 C   0  0  0  0  0  0  0  0  0 15  0  0
    0.4019    1.5000    0.0000 H   0  0  0  0  0  0  0  0  0  0  0  0
    1.9019    4.0981    0.0000 H   0  0  0  0  0  0  0  0  0  0  0  0
   -1.4462    8.7990    0.0000 H   0  0  0  0  0  0  0  0  0  0  0  0
    0.0538    7.2990    0.0000 H   0  0  0  0  0  0  0  0  0  0  0  0
   -2.9462    7.2990    0.0000 H   0  0  0  0  0  0  0  0  0  0  0  0
    3.7500    1.2990    0.0000 C   0  0  0  0  0  0  0  0  0 23  0  0
    1.5482    0.8511    0.0000 H   0  0  0  0  0  0  0  0  0  0  0  0
    3.2010    3.3481    0.0000 H   0  0  0  0  0  0  0  0  0  0  0  0
    3.0000    0.0000    0.0000 N   0  0  0  0  0  0  0  0  0  4  0  0
    5.0490    0.5490    0.0000 C   0  0  0  0  0  0  0  0  0  7  0  0
    4.5000    2.5981    0.0000 H   0  0  0  0  0  0  0  0  0  0  0  0
    3.7500   -1.2990    0.0000 C   0  0  0  0  0  0  0  0  0 20  0  0
    1.5112   -0.1828    0.0000 H   0  0  0  0  0  0  0  0  0  0  0  0
    5.7828    0.2376    0.0000 H   0  0  0  0  0  0  0  0  0  0  0  0
    5.7990    1.8481    0.0000 H   0  0  0  0  0  0  0  0  0  0  0  0
    4.7142   -0.6189    0.0000 H   0  0  0  0  0  0  0  0  0  0  0  0
    3.0000   -2.5981    0.0000 C   0  0  0  0  0  0  0  0  0 22  0  0
    5.2500   -1.2990    0.0000 C   0  0  0  0  0  0  0  0  0 10  0  0
    1.5000   -2.5981    0.0000 C   0  0  0  0  0  0  0  0  0 12  0  0
    3.7500   -3.8971    0.0000 C   0  0  0  0  0  0  0  0  0 21  0  0
    6.0000   -2.5981    0.0000 C   0  0  0  0  0  0  0  0  0  8  0  0
    5.7298   -0.6624    0.0000 H   0  0  0  0  0  0  0  0  0  0  0  0
    0.7500   -3.8971    0.0000 C   0  0  0  0  0  0  0  0  0  9  0  0
    0.7500   -1.2990    0.0000 H   0  0  0  0  0  0  0  0  0  0  0  0
    5.2500   -3.8971    0.0000 N   0  0  0  0  0  0  0  0  0  3  0  0
    3.0000   -5.1962    0.0000 C   0  0  0  0  0  0  0  0  0 11  0  0
    7.5000   -2.5981    0.0000 H   0  0  0  0  0  0  0  0  0  0  0  0
    1.5000   -5.1962    0.0000 C   0  0  0  0  0  0  0  0  0 19  0  0
   -0.7500   -3.8971    0.0000 H   0  0  0  0  0  0  0  0  0  0  0  0
    3.7500   -6.4952    0.0000 H   0  0  0  0  0  0  0  0  0  0  0  0
    0.7500   -6.4952    0.0000 Cl  0  0  0  0  0  0  0  0  0  1  0  0
   -2.7452    3.5490    0.0000 H   0  0  0  0  0  0  0  0  0  0  0  0
  2  1  1  0
  1  3  1  0
  4  2  1  0
  2  5  1  0
  2  6  1  0
  3  7  1  0
  3  8  1  0
  3  9  1  0
 10  4  1  0
  4 11  1  0
  4 12  1  0
  7 13  1  0
  7 14  1  0
  7 15  1  0
 16 10  1  0
 10 17  1  0
 10 18  1  0
 19 16  1  0
 16 20  1  0
 16 21  1  6
 22 19  1  0
 19 23  1  0
 20 24  1  0
 20 25  1  0
 20 26  1  0
 27 22  2  0
 22 28  1  0
 29 27  1  0
 30 27  1  0
 28 31  2  0
 28 32  1  0
 33 29  2  0
 29 34  1  0
 35 30  2  0
 30 36  1  0
 31 35  1  0
 31 37  1  0
 38 33  1  0
 33 39  1  0
 36 38  2  0
 36 40  1  0
 41 38  1  0
  1 42  1  0
M  END
>  <SMILES>  (2) 
CCNCCCC(C)Nc1ccnc2cc(Cl)ccc12

>  <Molecular Weight>  (2) 
291.8

>  <Substrate_ID>  (2) 
MOL0037

>  <Substrate>  (2) 


>  <Substrate_SMILES>  (2) 
CCN(CCO)CCCC(C)Nc1ccnc2cc(Cl)ccc12

>  <Reaction>  (2) 
N-dealkylation_(tertiaryN-CH2-alkyl)

>  <Score>  (2) 
0.2779

>  <Reaction_Score>  (2) 
0.2827

>  <Bond_Score>  (2) 
0.2731

>  <Rank>  (2) 
2

>  <Subtype>  (2) 
REACTION

>  <Subtype_Scores>  (2) 
[REACTION] SOM_score: 0.2731, Reaction_score: 0.2827, Score: 0.2779


$$$$
