
     RDKit          2D

 31 33  0  0  0  0  0  0  0  0999 V2000
    3.0000   -5.1962    0.0000 N   0  0  0  0  0  0  0  0  0  5  0  0
    1.5000   -5.1962    0.0000 C   0  0  0  0  0  0  0  0  0 22  0  0
    3.7500   -3.8971    0.0000 C   0  0  0  0  0  0  0  0  0 23  0  0
    0.7500   -3.8971    0.0000 C   0  0  0  0  0  0  0  0  0 26  0  0
    1.7605   -6.6734    0.0000 H   0  0  0  0  0  0  0  0  0  0  0  0
    0.0905   -5.7092    0.0000 H   0  0  0  0  0  0  0  0  0  0  0  0
    3.0000   -2.5981    0.0000 C   0  0  0  0  0  0  0  0  0 27  0  0
    4.8991   -2.9329    0.0000 H   0  0  0  0  0  0  0  0  0  0  0  0
    4.8991   -4.8613    0.0000 H   0  0  0  0  0  0  0  0  0  0  0  0
    1.5000   -2.5981    0.0000 N   0  0  0  0  0  0  0  0  0  7  0  0
   -0.3991   -4.8613    0.0000 H   0  0  0  0  0  0  0  0  0  0  0  0
   -0.3991   -2.9329    0.0000 H   0  0  0  0  0  0  0  0  0  0  0  0
    2.7395   -1.1209    0.0000 H   0  0  0  0  0  0  0  0  0  0  0  0
    4.4095   -2.0850    0.0000 H   0  0  0  0  0  0  0  0  0  0  0  0
    0.7500   -1.2990    0.0000 C   0  0  0  0  0  0  0  0  0 32  0  0
   -0.7500   -1.2990    0.0000 C   0  0  0  0  0  0  0  0  0 36  0  0
    1.5000    0.0000    0.0000 C   0  0  0  0  0  0  0  0  0 13  0  0
   -1.5000   -2.5981    0.0000 C   0  0  0  0  0  0  0  0  0 17  0  0
   -1.5000    0.0000    0.0000 C   0  0  0  0  0  0  0  0  0 34  0  0
    0.7500    1.2990    0.0000 C   0  0  0  0  0  0  0  0  0  9  0  0
    3.0000    0.0000    0.0000 H   0  0  0  0  0  0  0  0  0  0  0  0
   -3.0000   -2.5981    0.0000 C   0  0  0  0  0  0  0  0  0 11  0  0
   -0.7500   -3.8971    0.0000 H   0  0  0  0  0  0  0  0  0  0  0  0
   -0.7500    1.2990    0.0000 N   0  0  0  0  0  0  0  0  0  3  0  0
   -3.0000    0.0000    0.0000 C   0  0  0  0  0  0  0  0  0 15  0  0
    1.5000    2.5981    0.0000 H   0  0  0  0  0  0  0  0  0  0  0  0
   -3.7500   -1.2990    0.0000 C   0  0  0  0  0  0  0  0  0 30  0  0
   -3.7500   -3.8971    0.0000 H   0  0  0  0  0  0  0  0  0  0  0  0
   -3.7500    1.2990    0.0000 H   0  0  0  0  0  0  0  0  0  0  0  0
   -5.2500   -1.2990    0.0000 Cl  0  0  0  0  0  0  0  0  0  1  0  0
    3.7500   -6.4952    0.0000 H   0  0  0  0  0  0  0  0  0  0  0  0
  2  1  1  0
  1  3  1  0
  4  2  1  0
  2  5  1  0
  2  6  1  0
  3  7  1  0
  3  8  1  0
  3  9  1  0
 10  4  1  0
  4 11  1  0
  4 12  1  0
  7 10  1  0
  7 13  1  0
  7 14  1  0
 15 10  1  0
 16 15  1  0
 15 17  2  0
 18 16  2  0
 19 16  1  0
 17 20  1  0
 17 21  1  0
 22 18  1  0
 18 23  1  0
 24 19  1  0
 19 25  2  0
 20 24  2  0
 20 26  1  0
 27 22  2  0
 22 28  1  0
 25 27  1  0
 25 29  1  0
 30 27  1  0
  1 31  1  0
M  END
>  <SMILES>  (1) 
Clc1ccc2c(N3CCNCC3)ccnc2c1

>  <Molecular Weight>  (1) 
247.7

>  <Substrate_ID>  (1) 
MOL0032

>  <Substrate>  (1) 


>  <Substrate_SMILES>  (1) 
Clc1ccc2c(N3CCN(CCCN4CCN(c5ccnc6cc(Cl)ccc56)CC4)CC3)ccnc2c1

>  <Reaction>  (1) 
N-dealkylation_(tertiaryN-CH2-alkyl)

>  <Score>  (1) 
0.4573

>  <Reaction_Score>  (1) 
0.45

>  <Bond_Score>  (1) 
0.4647

>  <Rank>  (1) 
1

>  <Subtype>  (1) 
REACTION

>  <Subtype_Scores>  (1) 
[REACTION] SOM_score: 0.4647, Reaction_score: 0.4500, Score: 0.4573


$$$$

     RDKit          2D

 41 43  0  0  0  0  0  0  0  0999 V2000
    6.0000  -10.3923    0.0000 O   0  0  0  0  0  0  0  0  0 38  0  0
    5.2500   -9.0933    0.0000 C   0  0  0  0  0  0  0  0  0 20  0  0
    4.5000   -7.7942    0.0000 C   0  0  0  0  0  0  0  0  0 19  0  0
    3.9510   -9.8433    0.0000 H   0  0  0  0  0  0  0  0  0  0  0  0
    6.5490   -8.3433    0.0000 H   0  0  0  0  0  0  0  0  0  0  0  0
    3.7500   -6.4952    0.0000 C   0  0  0  0  0  0  0  0  0 21  0  0
    3.2010   -8.5442    0.0000 H   0  0  0  0  0  0  0  0  0  0  0  0
    5.7990   -7.0442    0.0000 H   0  0  0  0  0  0  0  0  0  0  0  0
    3.0000   -5.1962    0.0000 N   0  0  0  0  0  0  0  0  0  6  0  0
    5.1308   -5.9091    0.0000 H   0  0  0  0  0  0  0  0  0  0  0  0
    2.5521   -7.3979    0.0000 H   0  0  0  0  0  0  0  0  0  0  0  0
    1.5000   -5.1962    0.0000 C   0  0  0  0  0  0  0  0  0 24  0  0
    3.7500   -3.8971    0.0000 C   0  0  0  0  0  0  0  0  0 25  0  0
    0.7500   -3.8971    0.0000 C   0  0  0  0  0  0  0  0  0 28  0  0
    1.5785   -6.6941    0.0000 H   0  0  0  0  0  0  0  0  0  0  0  0
    0.0905   -5.7092    0.0000 H   0  0  0  0  0  0  0  0  0  0  0  0
    3.0000   -2.5981    0.0000 C   0  0  0  0  0  0  0  0  0 29  0  0
    4.8991   -2.9329    0.0000 H   0  0  0  0  0  0  0  0  0  0  0  0
    5.0080   -4.7140    0.0000 H   0  0  0  0  0  0  0  0  0  0  0  0
    1.5000   -2.5981    0.0000 N   0  0  0  0  0  0  0  0  0  8  0  0
   -0.3991   -4.8613    0.0000 H   0  0  0  0  0  0  0  0  0  0  0  0
   -0.3991   -2.9329    0.0000 H   0  0  0  0  0  0  0  0  0  0  0  0
    2.7395   -1.1209    0.0000 H   0  0  0  0  0  0  0  0  0  0  0  0
    4.4095   -2.0850    0.0000 H   0  0  0  0  0  0  0  0  0  0  0  0
    0.7500   -1.2990    0.0000 C   0  0  0  0  0  0  0  0  0 33  0  0
    1.5000    0.0000    0.0000 C   0  0  0  0  0  0  0  0  0 14  0  0
   -0.7500   -1.2990    0.0000 C   0  0  0  0  0  0  0  0  0 37  0  0
    0.7500    1.2990    0.0000 C   0  0  0  0  0  0  0  0  0 10  0  0
    3.0000    0.0000    0.0000 H   0  0  0  0  0  0  0  0  0  0  0  0
   -1.5000   -2.5981    0.0000 C   0  0  0  0  0  0  0  0  0 18  0  0
   -1.5000    0.0000    0.0000 C   0  0  0  0  0  0  0  0  0 35  0  0
   -0.7500    1.2990    0.0000 N   0  0  0  0  0  0  0  0  0  4  0  0
    1.5000    2.5981    0.0000 H   0  0  0  0  0  0  0  0  0  0  0  0
   -3.0000   -2.5981    0.0000 C   0  0  0  0  0  0  0  0  0 12  0  0
   -0.7500   -3.8971    0.0000 H   0  0  0  0  0  0  0  0  0  0  0  0
   -3.0000    0.0000    0.0000 C   0  0  0  0  0  0  0  0  0 16  0  0
   -3.7500   -1.2990    0.0000 C   0  0  0  0  0  0  0  0  0 31  0  0
   -3.7500   -3.8971    0.0000 H   0  0  0  0  0  0  0  0  0  0  0  0
   -3.7500    1.2990    0.0000 H   0  0  0  0  0  0  0  0  0  0  0  0
   -5.2500   -1.2990    0.0000 Cl  0  0  0  0  0  0  0  0  0  2  0  0
    7.5000  -10.3923    0.0000 H   0  0  0  0  0  0  0  0  0  0  0  0
  1  2  1  0
  2  3  1  0
  2  4  1  0
  2  5  1  0
  3  6  1  0
  3  7  1  0
  3  8  1  0
  6  9  1  0
  6 10  1  0
  6 11  1  0
  9 12  1  0
 13  9  1  0
 12 14  1  0
 12 15  1  0
 12 16  1  0
 17 13  1  0
 13 18  1  0
 13 19  1  0
 14 20  1  0
 14 21  1  0
 14 22  1  0
 20 17  1  0
 17 23  1  0
 17 24  1  0
 20 25  1  0
 25 26  2  0
 27 25  1  0
 26 28  1  0
 26 29  1  0
 30 27  2  0
 27 31  1  0
 28 32  2  0
 28 33  1  0
 34 30  1  0
 30 35  1  0
 32 31  1  0
 31 36  2  0
 37 34  2  0
 34 38  1  0
 36 37  1  0
 36 39  1  0
 37 40  1  0
  1 41  1  0
M  END
>  <SMILES>  (2) 
OCCCN1CCN(c2ccnc3cc(Cl)ccc23)CC1

>  <Molecular Weight>  (2) 
305.8

>  <Substrate_ID>  (2) 
MOL0032

>  <Substrate>  (2) 


>  <Substrate_SMILES>  (2) 
Clc1ccc2c(N3CCN(CCCN4CCN(c5ccnc6cc(Cl)ccc56)CC4)CC3)ccnc2c1

>  <Reaction>  (2) 
N-dealkylation_(tertiaryN-CH2-alkyl)

>  <Score>  (2) 
0.4573

>  <Reaction_Score>  (2) 
0.45

>  <Bond_Score>  (2) 
0.4647

>  <Rank>  (2) 
1

>  <Subtype>  (2) 
REACTION

>  <Subtype_Scores>  (2) 
[REACTION] SOM_score: 0.4647, Reaction_score: 0.4500, Score: 0.4573


$$$$

     RDKit          2D

 39 41  0  0  0  0  0  0  0  0999 V2000
    5.2500   -9.0933    0.0000 C   0  0  0  0  0  0  0  0  0 20  0  0
    6.7500   -9.0933    0.0000 O   0  0  0  0  0  0  0  0  0 38  0  0
    4.5000   -7.7942    0.0000 C   0  0  0  0  0  0  0  0  0 19  0  0
    4.5000  -10.3923    0.0000 H   0  0  0  0  0  0  0  0  0  0  0  0
    3.7500   -6.4952    0.0000 C   0  0  0  0  0  0  0  0  0 21  0  0
    5.7990   -7.0442    0.0000 H   0  0  0  0  0  0  0  0  0  0  0  0
    3.2010   -8.5442    0.0000 H   0  0  0  0  0  0  0  0  0  0  0  0
    3.0000   -5.1962    0.0000 N   0  0  0  0  0  0  0  0  0  6  0  0
    2.5521   -7.3979    0.0000 H   0  0  0  0  0  0  0  0  0  0  0  0
    5.1308   -5.9091    0.0000 H   0  0  0  0  0  0  0  0  0  0  0  0
    1.5000   -5.1962    0.0000 C   0  0  0  0  0  0  0  0  0 24  0  0
    3.7500   -3.8971    0.0000 C   0  0  0  0  0  0  0  0  0 25  0  0
    0.7500   -3.8971    0.0000 C   0  0  0  0  0  0  0  0  0 28  0  0
    1.5785   -6.6941    0.0000 H   0  0  0  0  0  0  0  0  0  0  0  0
    0.0905   -5.7092    0.0000 H   0  0  0  0  0  0  0  0  0  0  0  0
    3.0000   -2.5981    0.0000 C   0  0  0  0  0  0  0  0  0 29  0  0
    4.8991   -2.9329    0.0000 H   0  0  0  0  0  0  0  0  0  0  0  0
    5.0080   -4.7140    0.0000 H   0  0  0  0  0  0  0  0  0  0  0  0
    1.5000   -2.5981    0.0000 N   0  0  0  0  0  0  0  0  0  8  0  0
   -0.3991   -4.8613    0.0000 H   0  0  0  0  0  0  0  0  0  0  0  0
   -0.3991   -2.9329    0.0000 H   0  0  0  0  0  0  0  0  0  0  0  0
    2.7395   -1.1209    0.0000 H   0  0  0  0  0  0  0  0  0  0  0  0
    4.4095   -2.0850    0.0000 H   0  0  0  0  0  0  0  0  0  0  0  0
    0.7500   -1.2990    0.0000 C   0  0  0  0  0  0  0  0  0 33  0  0
    1.5000    0.0000    0.0000 C   0  0  0  0  0  0  0  0  0 14  0  0
   -0.7500   -1.2990    0.0000 C   0  0  0  0  0  0  0  0  0 37  0  0
    0.7500    1.2990    0.0000 C   0  0  0  0  0  0  0  0  0 10  0  0
    3.0000    0.0000    0.0000 H   0  0  0  0  0  0  0  0  0  0  0  0
   -1.5000   -2.5981    0.0000 C   0  0  0  0  0  0  0  0  0 18  0  0
   -1.5000    0.0000    0.0000 C   0  0  0  0  0  0  0  0  0 35  0  0
   -0.7500    1.2990    0.0000 N   0  0  0  0  0  0  0  0  0  4  0  0
    1.5000    2.5981    0.0000 H   0  0  0  0  0  0  0  0  0  0  0  0
   -3.0000   -2.5981    0.0000 C   0  0  0  0  0  0  0  0  0 12  0  0
   -0.7500   -3.8971    0.0000 H   0  0  0  0  0  0  0  0  0  0  0  0
   -3.0000    0.0000    0.0000 C   0  0  0  0  0  0  0  0  0 16  0  0
   -3.7500   -1.2990    0.0000 C   0  0  0  0  0  0  0  0  0 31  0  0
   -3.7500   -3.8971    0.0000 H   0  0  0  0  0  0  0  0  0  0  0  0
   -3.7500    1.2990    0.0000 H   0  0  0  0  0  0  0  0  0  0  0  0
   -5.2500   -1.2990    0.0000 Cl  0  0  0  0  0  0  0  0  0  2  0  0
  1  2  2  0
  1  3  1  0
  1  4  1  0
  3  5  1  0
  3  6  1  0
  3  7  1  0
  5  8  1  0
  5  9  1  0
  5 10  1  0
  8 11  1  0
 12  8  1  0
 11 13  1  0
 11 14  1  0
 11 15  1  0
 16 12  1  0
 12 17  1  0
 12 18  1  0
 13 19  1  0
 13 20  1  0
 13 21  1  0
 19 16  1  0
 16 22  1  0
 16 23  1  0
 19 24  1  0
 24 25  2  0
 26 24  1  0
 25 27  1  0
 25 28  1  0
 29 26  2  0
 26 30  1  0
 27 31  2  0
 27 32  1  0
 33 29  1  0
 29 34  1  0
 31 30  1  0
 30 35  2  0
 36 33  2  0
 33 37  1  0
 35 36  1  0
 35 38  1  0
 36 39  1  0
M  END
>  <SMILES>  (3) 
O=CCCN1CCN(c2ccnc3cc(Cl)ccc23)CC1

>  <Molecular Weight>  (3) 
303.8

>  <Substrate_ID>  (3) 
MOL0032

>  <Substrate>  (3) 


>  <Substrate_SMILES>  (3) 
Clc1ccc2c(N3CCN(CCCN4CCN(c5ccnc6cc(Cl)ccc56)CC4)CC3)ccnc2c1

>  <Reaction>  (3) 
N-dealkylation_(hetero_ring)

>  <Score>  (3) 
0.4573

>  <Reaction_Score>  (3) 
0.45

>  <Bond_Score>  (3) 
0.4647

>  <Rank>  (3) 
1

>  <Subtype>  (3) 
REACTION

>  <Subtype_Scores>  (3) 
[REACTION] SOM_score: 0.4647, Reaction_score: 0.4500, Score: 0.4573


$$$$
