
     RDKit          2D

 38 41  0  0  0  0  0  0  0  0999 V2000
    2.4002    5.0933    0.0000 C   0  0  0  0  0  0  0  0  0 14  0  0
    3.8835    4.8697    0.0000 N   0  0  0  0  0  0  0  0  0  4  0  0
    4.4315    3.4734    0.0000 C   0  0  0  0  0  0  0  0  0 15  0  0
    1.4650    3.9205    0.0000 C   0  0  0  0  0  0  0  0  0 16  0  0
    1.0829    5.8106    0.0000 H   0  0  0  0  0  0  0  0  0  0  0  0
    2.8779    6.5151    0.0000 H   0  0  0  0  0  0  0  0  0  0  0  0
    2.0130    2.5242    0.0000 N   0  0  0  0  0  0  0  0  0  5  0  0
    0.7044    3.6818    0.0000 H   0  0  0  0  0  0  0  0  0  0  0  0
    0.4724    5.0452    0.0000 H   0  0  0  0  0  0  0  0  0  0  0  0
    1.0777    1.3515    0.0000 C   0  0  0  0  0  0  0  0  0 18  0  0
    3.4962    2.3006    0.0000 C   0  0  0  0  0  0  0  0  0 17  0  0
   -0.3846    1.6852    0.0000 C   0  0  0  0  0  0  0  0  0 23  0  0
    1.7286    0.0000    0.0000 N   0  0  0  0  0  0  0  0  0  3  0  0
    4.8136    1.5833    0.0000 H   0  0  0  0  0  0  0  0  0  0  0  0
    3.0185    0.8787    0.0000 H   0  0  0  0  0  0  0  0  0  0  0  0
   -1.5574    0.7500    0.0000 C   0  0  0  0  0  0  0  0  0 22  0  0
   -0.6082    3.1685    0.0000 C   0  0  0  0  0  0  0  0  0 13  0  0
    1.0777   -1.3515    0.0000 C   0  0  0  0  0  0  0  0  0 20  0  0
   -2.9537    1.2980    0.0000 C   0  0  0  0  0  0  0  0  0 12  0  0
   -1.5574   -0.7500    0.0000 O   0  0  0  0  0  0  0  0  0  2  0  0
   -2.0045    3.7165    0.0000 C   0  0  0  0  0  0  0  0  0 19  0  0
    0.0843    3.7207    0.0000 H   0  0  0  0  0  0  0  0  0  0  0  0
    2.0980   -2.4510    0.0000 C   0  0  0  0  0  0  0  0  0 10  0  0
   -0.3846   -1.6852    0.0000 C   0  0  0  0  0  0  0  0  0 21  0  0
   -3.1773    2.7813    0.0000 C   0  0  0  0  0  0  0  0  0  9  0  0
   -4.1264    0.3628    0.0000 H   0  0  0  0  0  0  0  0  0  0  0  0
   -2.2281    5.1997    0.0000 Cl  0  0  0  0  0  0  0  0  0  1  0  0
    1.6559   -3.8844    0.0000 C   0  0  0  0  0  0  0  0  0  7  0  0
    3.5604   -2.1172    0.0000 H   0  0  0  0  0  0  0  0  0  0  0  0
   -0.8268   -3.1186    0.0000 C   0  0  0  0  0  0  0  0  0 11  0  0
   -4.5736    3.3293    0.0000 H   0  0  0  0  0  0  0  0  0  0  0  0
    0.1935   -4.2182    0.0000 C   0  0  0  0  0  0  0  0  0  8  0  0
    2.6761   -4.9840    0.0000 H   0  0  0  0  0  0  0  0  0  0  0  0
   -2.2892   -3.4524    0.0000 H   0  0  0  0  0  0  0  0  0  0  0  0
   -0.2487   -5.6515    0.0000 H   0  0  0  0  0  0  0  0  0  0  0  0
    5.7114    4.2555    0.0000 H   0  0  0  0  0  0  0  0  0  0  0  0
    5.4240    2.3487    0.0000 H   0  0  0  0  0  0  0  0  0  0  0  0
    4.8187    6.0424    0.0000 H   0  0  0  0  0  0  0  0  0  0  0  0
  1  2  1  0
  2  3  1  0
  4  1  1  0
  1  5  1  0
  1  6  1  0
  7  4  1  0
  4  8  1  0
  4  9  1  0
 10  7  1  0
 11  7  1  0
 12 10  1  0
 10 13  2  0
  3 11  1  0
 11 14  1  0
 11 15  1  0
 16 12  2  0
 12 17  1  0
 13 18  1  0
 19 16  1  0
 20 16  1  0
 17 21  2  0
 17 22  1  0
 18 23  1  0
 24 18  2  0
 25 19  2  0
 19 26  1  0
 24 20  1  0
 27 21  1  0
 21 25  1  0
 23 28  2  0
 23 29  1  0
 30 24  1  0
 25 31  1  0
 28 32  1  0
 28 33  1  0
 32 30  2  0
 30 34  1  0
 32 35  1  0
  3 36  1  0
  3 37  1  0
  2 38  1  0
M  END
>  <SMILES>  (1) 
Clc1ccc2c(c1)C(N1CCNCC1)=Nc1ccccc1O2

>  <Molecular Weight>  (1) 
313.8

>  <Substrate_ID>  (1) 
MOL0048

>  <Substrate>  (1) 


>  <Substrate_SMILES>  (1) 
CN1CCN(C2=Nc3ccccc3Oc3ccc(Cl)cc32)CC1

>  <Reaction>  (1) 
N-demethylation_(R-N(CR)CH3),N-demethylation_(tertiary_amine)

>  <Score>  (1) 
0.9275

>  <Reaction_Score>  (1) 
0.9161

>  <Bond_Score>  (1) 
0.939

>  <Rank>  (1) 
1

>  <Subtype>  (1) 
REACTION

>  <Subtype_Scores>  (1) 
[REACTION] SOM_score: 0.9390, Reaction_score: 0.9161, Score: 0.9275


$$$$

     RDKit          2D

 42 45  0  0  0  0  0  0  0  0999 V2000
    1.7286    0.0000    0.0000 O   0  0  0  0  0  0  0  0  0  2  0  0
    1.0777    1.3515    0.0000 C   0  0  0  0  0  0  0  0  0 21  0  0
   -0.3846    1.6852    0.0000 C   0  0  0  0  0  0  0  0  0 20  0  0
   -0.8268    3.1186    0.0000 C   0  0  0  0  0  0  0  0  0 10  0  0
    0.1935    4.2182    0.0000 C   0  0  0  0  0  0  0  0  0  7  0  0
   -0.2487    5.6515    0.0000 O   0  0  0  0  0  0  0  0  0 24  0  0
    1.6559    3.8844    0.0000 C   0  0  0  0  0  0  0  0  0  8  0  0
    2.0980    2.4510    0.0000 C   0  0  0  0  0  0  0  0  0 11  0  0
    1.0777   -1.3515    0.0000 C   0  0  0  0  0  0  0  0  0 22  0  0
    2.0980   -2.4510    0.0000 C   0  0  0  0  0  0  0  0  0 12  0  0
   -0.3846   -1.6852    0.0000 C   0  0  0  0  0  0  0  0  0 23  0  0
    1.6559   -3.8844    0.0000 C   0  0  0  0  0  0  0  0  0  9  0  0
    3.5604   -2.1172    0.0000 H   0  0  0  0  0  0  0  0  0  0  0  0
   -0.8268   -3.1186    0.0000 C   0  0  0  0  0  0  0  0  0 13  0  0
   -1.5574   -0.7500    0.0000 C   0  0  0  0  0  0  0  0  0 18  0  0
    0.1935   -4.2182    0.0000 C   0  0  0  0  0  0  0  0  0 19  0  0
    2.6761   -4.9840    0.0000 H   0  0  0  0  0  0  0  0  0  0  0  0
   -1.6040   -3.2960    0.0000 H   0  0  0  0  0  0  0  0  0  0  0  0
   -2.9088   -1.4008    0.0000 N   0  0  0  0  0  0  0  0  0  5  0  0
   -1.5574    0.7500    0.0000 N   0  0  0  0  0  0  0  0  0  3  0  0
   -0.2487   -5.6515    0.0000 Cl  0  0  0  0  0  0  0  0  0  1  0  0
   -4.1482   -0.5558    0.0000 C   0  0  0  0  0  0  0  0  0 16  0  0
   -3.0209   -2.8966    0.0000 C   0  0  0  0  0  0  0  0  0 17  0  0
   -5.4997   -1.2067    0.0000 C   0  0  0  0  0  0  0  0  0 14  0  0
   -5.0238    0.6621    0.0000 H   0  0  0  0  0  0  0  0  0  0  0  0
   -3.1008    0.5180    0.0000 H   0  0  0  0  0  0  0  0  0  0  0  0
   -4.3724   -3.5475    0.0000 C   0  0  0  0  0  0  0  0  0 15  0  0
   -2.2321   -3.0116    0.0000 H   0  0  0  0  0  0  0  0  0  0  0  0
   -2.6147   -4.3406    0.0000 H   0  0  0  0  0  0  0  0  0  0  0  0
   -5.6118   -2.7025    0.0000 N   0  0  0  0  0  0  0  0  0  4  0  0
   -6.9993   -1.1730    0.0000 H   0  0  0  0  0  0  0  0  0  0  0  0
   -5.9059    0.2373    0.0000 H   0  0  0  0  0  0  0  0  0  0  0  0
   -3.4968   -4.7654    0.0000 H   0  0  0  0  0  0  0  0  0  0  0  0
   -5.2810   -4.7409    0.0000 H   0  0  0  0  0  0  0  0  0  0  0  0
   -6.9632   -3.3533    0.0000 C   0  0  0  0  0  0  0  0  0  6  0  0
   -8.3147   -4.0041    0.0000 H   0  0  0  0  0  0  0  0  0  0  0  0
   -7.7739   -2.0913    0.0000 H   0  0  0  0  0  0  0  0  0  0  0  0
   -6.4820   -4.7740    0.0000 H   0  0  0  0  0  0  0  0  0  0  0  0
   -2.2892    3.4524    0.0000 H   0  0  0  0  0  0  0  0  0  0  0  0
    2.6761    4.9840    0.0000 H   0  0  0  0  0  0  0  0  0  0  0  0
    3.5604    2.1172    0.0000 H   0  0  0  0  0  0  0  0  0  0  0  0
    0.7716    6.7511    0.0000 H   0  0  0  0  0  0  0  0  0  0  0  0
  1  2  1  0
  2  3  2  0
  3  4  1  0
  4  5  2  0
  5  6  1  0
  5  7  1  0
  7  8  2  0
  8  2  1  0
  1  9  1  0
 10  9  1  0
  9 11  2  0
 12 10  2  0
 10 13  1  0
 11 14  1  0
 11 15  1  0
 16 12  1  0
 12 17  1  0
 14 16  2  0
 14 18  1  0
 15 19  1  0
 15 20  2  0
 21 16  1  0
 19 22  1  0
 23 19  1  0
 20  3  1  0
 22 24  1  0
 22 25  1  0
 22 26  1  0
 27 23  1  0
 23 28  1  0
 23 29  1  0
 24 30  1  0
 24 31  1  0
 24 32  1  0
 30 27  1  0
 27 33  1  0
 27 34  1  0
 30 35  1  0
 35 36  1  0
 35 37  1  0
 35 38  1  0
  4 39  1  0
  7 40  1  0
  8 41  1  0
  6 42  1  0
M  END
>  <SMILES>  (2) 
CN1CCN(C2=Nc3cc(O)ccc3Oc3ccc(Cl)cc32)CC1

>  <Molecular Weight>  (2) 
343.8

>  <Substrate_ID>  (2) 
MOL0048

>  <Substrate>  (2) 


>  <Substrate_SMILES>  (2) 
CN1CCN(C2=Nc3ccccc3Oc3ccc(Cl)cc32)CC1

>  <Reaction>  (2) 
aromatic_hydroxylation_(para_to_oxygen),aromatic hydroxylation

>  <Score>  (2) 
0.2844

>  <Reaction_Score>  (2) 
0.2898

>  <Bond_Score>  (2) 
0.2791

>  <Rank>  (2) 
2

>  <Subtype>  (2) 
REACTION

>  <Subtype_Scores>  (2) 
[REACTION] SOM_score: 0.2791, Reaction_score: 0.2898, Score: 0.2844


$$$$

     RDKit          2D

 42 45  0  0  0  0  0  0  0  0999 V2000
    1.7286    0.0000    0.0000 N   0  0  0  0  0  0  0  0  0  3  0  0
    1.0777    1.3515    0.0000 C   0  0  0  0  0  0  0  0  0 20  0  0
   -0.3846    1.6852    0.0000 C   0  0  0  0  0  0  0  0  0 21  0  0
   -0.8268    3.1186    0.0000 C   0  0  0  0  0  0  0  0  0 11  0  0
    0.1935    4.2182    0.0000 C   0  0  0  0  0  0  0  0  0  8  0  0
   -0.2487    5.6515    0.0000 O   0  0  0  0  0  0  0  0  0 24  0  0
    1.6559    3.8844    0.0000 C   0  0  0  0  0  0  0  0  0  7  0  0
    2.0980    2.4510    0.0000 C   0  0  0  0  0  0  0  0  0 10  0  0
    1.0777   -1.3515    0.0000 C   0  0  0  0  0  0  0  0  0 18  0  0
   -0.3846   -1.6852    0.0000 C   0  0  0  0  0  0  0  0  0 23  0  0
    2.0130   -2.5242    0.0000 N   0  0  0  0  0  0  0  0  0  5  0  0
   -1.5574   -0.7500    0.0000 C   0  0  0  0  0  0  0  0  0 22  0  0
   -0.6082   -3.1685    0.0000 C   0  0  0  0  0  0  0  0  0 13  0  0
    1.4650   -3.9205    0.0000 C   0  0  0  0  0  0  0  0  0 16  0  0
    3.4962   -2.3006    0.0000 C   0  0  0  0  0  0  0  0  0 17  0  0
   -2.9537   -1.2980    0.0000 C   0  0  0  0  0  0  0  0  0 12  0  0
   -1.5574    0.7500    0.0000 O   0  0  0  0  0  0  0  0  0  2  0  0
   -2.0045   -3.7165    0.0000 C   0  0  0  0  0  0  0  0  0 19  0  0
    0.0843   -3.7207    0.0000 H   0  0  0  0  0  0  0  0  0  0  0  0
    2.4002   -5.0933    0.0000 C   0  0  0  0  0  0  0  0  0 14  0  0
    0.4724   -5.0452    0.0000 H   0  0  0  0  0  0  0  0  0  0  0  0
    0.7044   -3.6818    0.0000 H   0  0  0  0  0  0  0  0  0  0  0  0
    4.4315   -3.4734    0.0000 C   0  0  0  0  0  0  0  0  0 15  0  0
    3.0185   -0.8787    0.0000 H   0  0  0  0  0  0  0  0  0  0  0  0
    4.8136   -1.5833    0.0000 H   0  0  0  0  0  0  0  0  0  0  0  0
   -3.1773   -2.7813    0.0000 C   0  0  0  0  0  0  0  0  0  9  0  0
   -4.1264   -0.3628    0.0000 H   0  0  0  0  0  0  0  0  0  0  0  0
   -2.2281   -5.1997    0.0000 Cl  0  0  0  0  0  0  0  0  0  1  0  0
    3.8835   -4.8697    0.0000 N   0  0  0  0  0  0  0  0  0  4  0  0
    2.7011   -6.5628    0.0000 H   0  0  0  0  0  0  0  0  0  0  0  0
    1.0829   -5.8106    0.0000 H   0  0  0  0  0  0  0  0  0  0  0  0
    5.4240   -2.3487    0.0000 H   0  0  0  0  0  0  0  0  0  0  0  0
    5.7972   -4.0937    0.0000 H   0  0  0  0  0  0  0  0  0  0  0  0
   -4.5736   -3.3293    0.0000 H   0  0  0  0  0  0  0  0  0  0  0  0
    4.8187   -6.0424    0.0000 C   0  0  0  0  0  0  0  0  0  6  0  0
    5.7539   -7.2152    0.0000 H   0  0  0  0  0  0  0  0  0  0  0  0
    3.7687   -7.1137    0.0000 H   0  0  0  0  0  0  0  0  0  0  0  0
    6.0967   -5.2571    0.0000 H   0  0  0  0  0  0  0  0  0  0  0  0
   -2.2892    3.4524    0.0000 H   0  0  0  0  0  0  0  0  0  0  0  0
    2.6761    4.9840    0.0000 H   0  0  0  0  0  0  0  0  0  0  0  0
    3.5604    2.1172    0.0000 H   0  0  0  0  0  0  0  0  0  0  0  0
    0.7716    6.7511    0.0000 H   0  0  0  0  0  0  0  0  0  0  0  0
  1  2  1  0
  2  3  2  0
  3  4  1  0
  4  5  2  0
  5  6  1  0
  5  7  1  0
  7  8  2  0
  8  2  1  0
  9  1  2  0
 10  9  1  0
  9 11  1  0
 12 10  2  0
 10 13  1  0
 11 14  1  0
 15 11  1  0
 16 12  1  0
 17 12  1  0
 13 18  2  0
 13 19  1  0
 14 20  1  0
 14 21  1  0
 14 22  1  0
 23 15  1  0
 15 24  1  0
 15 25  1  0
 26 16  2  0
 16 27  1  0
  3 17  1  0
 28 18  1  0
 18 26  1  0
 20 29  1  0
 20 30  1  0
 20 31  1  0
 29 23  1  0
 23 32  1  0
 23 33  1  0
 26 34  1  0
 29 35  1  0
 35 36  1  0
 35 37  1  0
 35 38  1  0
  4 39  1  0
  7 40  1  0
  8 41  1  0
  6 42  1  0
M  END
>  <SMILES>  (3) 
CN1CCN(C2=Nc3ccc(O)cc3Oc3ccc(Cl)cc32)CC1

>  <Molecular Weight>  (3) 
343.8

>  <Substrate_ID>  (3) 
MOL0048

>  <Substrate>  (3) 


>  <Substrate_SMILES>  (3) 
CN1CCN(C2=Nc3ccccc3Oc3ccc(Cl)cc32)CC1

>  <Reaction>  (3) 
aromatic_hydroxylation_(para_to_nitrogen),aromatic hydroxylation

>  <Score>  (3) 
0.265

>  <Reaction_Score>  (3) 
0.2722

>  <Bond_Score>  (3) 
0.258

>  <Rank>  (3) 
3

>  <Subtype>  (3) 
REACTION

>  <Subtype_Scores>  (3) 
[REACTION] SOM_score: 0.2580, Reaction_score: 0.2722, Score: 0.2650


$$$$
