
     RDKit          2D

 40 43  0  0  0  0  0  0  0  0999 V2000
    0.7500   -1.2990    0.0000 C   0  0  0  0  0  0  0  0  0 22  0  0
    1.5000    0.0000    0.0000 N   0  0  0  0  0  0  0  0  0  3  0  0
    0.7500    1.2990    0.0000 C   0  0  0  0  0  0  0  0  0 14  0  0
    1.5000   -2.5981    0.0000 C   0  0  0  0  0  0  0  0  0 13  0  0
   -0.7500   -1.2990    0.0000 C   0  0  0  0  0  0  0  0  0 21  0  0
    1.9559   -1.1509    0.0000 H   0  0  0  0  0  0  0  0  0  0  0  0
    0.7500   -3.8971    0.0000 C   0  0  0  0  0  0  0  0  0 15  0  0
    2.6491   -3.5623    0.0000 H   0  0  0  0  0  0  0  0  0  0  0  0
    2.5190   -1.9364    0.0000 H   0  0  0  0  0  0  0  0  0  0  0  0
   -1.5000    0.0000    0.0000 C   0  0  0  0  0  0  0  0  0 16  0  0
   -1.5000   -2.5981    0.0000 C   0  0  0  0  0  0  0  0  0 20  0  0
    1.5000   -5.1962    0.0000 C   0  0  0  0  0  0  0  0  0  9  0  0
   -0.7500   -3.8971    0.0000 C   0  0  0  0  0  0  0  0  0 18  0  0
   -3.0000    0.0000    0.0000 C   0  0  0  0  0  0  0  0  0 10  0  0
   -0.7500    1.2990    0.0000 C   0  0  0  0  0  0  0  0  0 12  0  0
   -3.0000   -2.5981    0.0000 C   0  0  0  0  0  0  0  0  0 19  0  0
    0.7500   -6.4952    0.0000 C   0  0  0  0  0  0  0  0  0  7  0  0
    3.0000   -5.1962    0.0000 H   0  0  0  0  0  0  0  0  0  0  0  0
   -1.5000   -5.1962    0.0000 C   0  0  0  0  0  0  0  0  0 11  0  0
   -3.7500   -1.2990    0.0000 C   0  0  0  0  0  0  0  0  0 17  0  0
   -3.7500    1.2990    0.0000 H   0  0  0  0  0  0  0  0  0  0  0  0
   -2.1595    1.8121    0.0000 H   0  0  0  0  0  0  0  0  0  0  0  0
   -0.4895    2.7762    0.0000 H   0  0  0  0  0  0  0  0  0  0  0  0
   -3.7500   -3.8971    0.0000 O   0  0  0  0  0  0  0  0  0  2  0  0
   -0.7500   -6.4952    0.0000 C   0  0  0  0  0  0  0  0  0  8  0  0
    1.5000   -7.7942    0.0000 H   0  0  0  0  0  0  0  0  0  0  0  0
   -3.0000   -5.1962    0.0000 H   0  0  0  0  0  0  0  0  0  0  0  0
   -5.2500   -1.2990    0.0000 O   0  0  0  0  0  0  0  0  0  1  0  0
   -5.2500   -3.8971    0.0000 C   0  0  0  0  0  0  0  0  0  5  0  0
   -1.5000   -7.7942    0.0000 H   0  0  0  0  0  0  0  0  0  0  0  0
   -6.0000   -2.5981    0.0000 C   0  0  0  0  0  0  0  0  0  4  0  0
   -5.2500   -5.3971    0.0000 H   0  0  0  0  0  0  0  0  0  0  0  0
   -5.0571   -3.1236    0.0000 H   0  0  0  0  0  0  0  0  0  0  0  0
   -6.7388   -4.0800    0.0000 H   0  0  0  0  0  0  0  0  0  0  0  0
   -7.2990   -1.8481    0.0000 H   0  0  0  0  0  0  0  0  0  0  0  0
   -5.2337   -2.8178    0.0000 H   0  0  0  0  0  0  0  0  0  0  0  0
   -6.9028   -3.7960    0.0000 H   0  0  0  0  0  0  0  0  0  0  0  0
    0.4895    2.7762    0.0000 H   0  0  0  0  0  0  0  0  0  0  0  0
    2.1595    1.8121    0.0000 H   0  0  0  0  0  0  0  0  0  0  0  0
    3.0000    0.0000    0.0000 H   0  0  0  0  0  0  0  0  0  0  0  0
  1  2  1  0
  2  3  1  0
  4  1  1  0
  1  5  1  0
  1  6  1  1
  7  4  1  0
  4  8  1  0
  4  9  1  0
 10  5  2  0
  5 11  1  0
 12  7  1  0
  7 13  2  0
 14 10  1  0
 15 10  1  0
 11 16  2  0
 11 13  1  0
 17 12  2  0
 12 18  1  0
 13 19  1  0
 20 14  2  0
 14 21  1  0
  3 15  1  0
 15 22  1  0
 15 23  1  0
 16 24  1  0
 16 20  1  0
 25 17  1  0
 17 26  1  0
 19 25  2  0
 19 27  1  0
 28 20  1  0
 24 29  1  0
 25 30  1  0
 28 31  1  0
 29 32  1  0
 29 33  1  0
 29 34  1  0
 31 35  1  0
 31 36  1  0
 31 37  1  0
  3 38  1  0
  3 39  1  0
  2 40  1  0
M  END
>  <SMILES>  (1) 
COc1cc2c3c(c1OC)-c1ccccc1CC3NCC2

>  <Molecular Weight>  (1) 
281.4

>  <Substrate_ID>  (1) 
MOL0076

>  <Substrate>  (1) 


>  <Substrate_SMILES>  (1) 
COc1cc2c3c(c1OC)-c1ccccc1CC3N(C)CC2

>  <Reaction>  (1) 
N-demethylation_(R-N(CR)CH3),N-demethylation_(tertiary_amine)

>  <Score>  (1) 
0.8345

>  <Reaction_Score>  (1) 
0.8286

>  <Bond_Score>  (1) 
0.8404

>  <Rank>  (1) 
1

>  <Subtype>  (1) 
REACTION

>  <Subtype_Scores>  (1) 
[REACTION] SOM_score: 0.8404, Reaction_score: 0.8286, Score: 0.8345


$$$$

     RDKit          2D

 40 43  0  0  0  0  0  0  0  0999 V2000
    1.5000    0.0000    0.0000 C   0  0  0  0  0  0  0  0  0 17  0  0
    3.0000    0.0000    0.0000 O   0  0  0  0  0  0  0  0  0  1  0  0
    0.7500   -1.2990    0.0000 C   0  0  0  0  0  0  0  0  0 10  0  0
    0.7500    1.2990    0.0000 C   0  0  0  0  0  0  0  0  0 19  0  0
   -0.7500   -1.2990    0.0000 C   0  0  0  0  0  0  0  0  0 16  0  0
    1.5000   -2.5981    0.0000 H   0  0  0  0  0  0  0  0  0  0  0  0
   -0.7500    1.2990    0.0000 C   0  0  0  0  0  0  0  0  0 20  0  0
    1.5000    2.5981    0.0000 O   0  0  0  0  0  0  0  0  0  2  0  0
   -1.5000    0.0000    0.0000 C   0  0  0  0  0  0  0  0  0 21  0  0
   -1.5000   -2.5981    0.0000 C   0  0  0  0  0  0  0  0  0 12  0  0
   -1.5000    2.5981    0.0000 C   0  0  0  0  0  0  0  0  0 18  0  0
    3.0000    2.5981    0.0000 C   0  0  0  0  0  0  0  0  0  5  0  0
   -3.0000    0.0000    0.0000 C   0  0  0  0  0  0  0  0  0 22  0  0
   -3.0000   -2.5981    0.0000 C   0  0  0  0  0  0  0  0  0 14  0  0
   -1.7605   -4.0753    0.0000 H   0  0  0  0  0  0  0  0  0  0  0  0
   -0.0905   -3.1111    0.0000 H   0  0  0  0  0  0  0  0  0  0  0  0
   -0.7500    3.8971    0.0000 C   0  0  0  0  0  0  0  0  0 11  0  0
   -3.0000    2.5981    0.0000 C   0  0  0  0  0  0  0  0  0 15  0  0
    4.5000    2.5981    0.0000 H   0  0  0  0  0  0  0  0  0  0  0  0
    3.0000    4.0981    0.0000 H   0  0  0  0  0  0  0  0  0  0  0  0
    3.0000    1.0981    0.0000 H   0  0  0  0  0  0  0  0  0  0  0  0
   -3.7500    1.2990    0.0000 C   0  0  0  0  0  0  0  0  0 13  0  0
   -3.7500   -1.2990    0.0000 N   0  0  0  0  0  0  0  0  0  3  0  0
   -3.5538    0.5734    0.0000 H   0  0  0  0  0  0  0  0  0  0  0  0
   -4.3365   -3.2791    0.0000 H   0  0  0  0  0  0  0  0  0  0  0  0
   -2.7395   -4.0753    0.0000 H   0  0  0  0  0  0  0  0  0  0  0  0
   -1.5000    5.1962    0.0000 C   0  0  0  0  0  0  0  0  0  8  0  0
    0.7500    3.8971    0.0000 H   0  0  0  0  0  0  0  0  0  0  0  0
   -3.7500    3.8971    0.0000 C   0  0  0  0  0  0  0  0  0  9  0  0
   -4.8991    2.2632    0.0000 H   0  0  0  0  0  0  0  0  0  0  0  0
   -5.0080    0.4821    0.0000 H   0  0  0  0  0  0  0  0  0  0  0  0
   -5.2500   -1.2990    0.0000 C   0  0  0  0  0  0  0  0  0  6  0  0
   -3.0000    5.1962    0.0000 C   0  0  0  0  0  0  0  0  0  7  0  0
   -0.7500    6.4952    0.0000 H   0  0  0  0  0  0  0  0  0  0  0  0
   -5.2500    3.8971    0.0000 H   0  0  0  0  0  0  0  0  0  0  0  0
   -6.7500   -1.2990    0.0000 H   0  0  0  0  0  0  0  0  0  0  0  0
   -5.4328   -2.7879    0.0000 H   0  0  0  0  0  0  0  0  0  0  0  0
   -5.4328    0.1898    0.0000 H   0  0  0  0  0  0  0  0  0  0  0  0
   -3.7500    6.4952    0.0000 H   0  0  0  0  0  0  0  0  0  0  0  0
    3.7500   -1.2990    0.0000 H   0  0  0  0  0  0  0  0  0  0  0  0
  1  2  1  0
  1  3  2  0
  4  1  1  0
  3  5  1  0
  3  6  1  0
  7  4  2  0
  4  8  1  0
  5  9  2  0
 10  5  1  0
  9  7  1  0
  7 11  1  0
  8 12  1  0
 13  9  1  0
 14 10  1  0
 10 15  1  0
 10 16  1  0
 11 17  2  0
 18 11  1  0
 12 19  1  0
 12 20  1  0
 12 21  1  0
 22 13  1  0
 13 23  1  0
 13 24  1  1
 23 14  1  0
 14 25  1  0
 14 26  1  0
 17 27  1  0
 17 28  1  0
 29 18  2  0
 18 22  1  0
 22 30  1  0
 22 31  1  0
 23 32  1  0
 27 33  2  0
 27 34  1  0
 33 29  1  0
 29 35  1  0
 32 36  1  0
 32 37  1  0
 32 38  1  0
 33 39  1  0
  2 40  1  0
M  END
>  <SMILES>  (2) 
COc1c(O)cc2c3c1-c1ccccc1CC3N(C)CC2

>  <Molecular Weight>  (2) 
281.4

>  <Substrate_ID>  (2) 
MOL0076

>  <Substrate>  (2) 


>  <Substrate_SMILES>  (2) 
COc1cc2c3c(c1OC)-c1ccccc1CC3N(C)CC2

>  <Reaction>  (2) 
O-demethylation

>  <Score>  (2) 
0.6313

>  <Reaction_Score>  (2) 
0.6423

>  <Bond_Score>  (2) 
0.6204

>  <Rank>  (2) 
2

>  <Subtype>  (2) 
REACTION

>  <Subtype_Scores>  (2) 
[REACTION] SOM_score: 0.6204, Reaction_score: 0.6423, Score: 0.6313


$$$$

     RDKit          2D

 40 43  0  0  0  0  0  0  0  0999 V2000
    1.5000    0.0000    0.0000 C   0  0  0  0  0  0  0  0  0 19  0  0
    3.0000    0.0000    0.0000 O   0  0  0  0  0  0  0  0  0  2  0  0
    0.7500   -1.2990    0.0000 C   0  0  0  0  0  0  0  0  0 20  0  0
    0.7500    1.2990    0.0000 C   0  0  0  0  0  0  0  0  0 17  0  0
   -0.7500   -1.2990    0.0000 C   0  0  0  0  0  0  0  0  0 21  0  0
    1.5000   -2.5981    0.0000 C   0  0  0  0  0  0  0  0  0 18  0  0
    1.5000    2.5981    0.0000 O   0  0  0  0  0  0  0  0  0  1  0  0
   -0.7500    1.2990    0.0000 C   0  0  0  0  0  0  0  0  0 10  0  0
   -1.5000    0.0000    0.0000 C   0  0  0  0  0  0  0  0  0 16  0  0
   -1.5000   -2.5981    0.0000 C   0  0  0  0  0  0  0  0  0 22  0  0
    3.0000   -2.5981    0.0000 C   0  0  0  0  0  0  0  0  0 11  0  0
    0.7500   -3.8971    0.0000 C   0  0  0  0  0  0  0  0  0 15  0  0
    0.7500    3.8971    0.0000 C   0  0  0  0  0  0  0  0  0  4  0  0
   -1.5000    2.5981    0.0000 H   0  0  0  0  0  0  0  0  0  0  0  0
   -3.0000    0.0000    0.0000 C   0  0  0  0  0  0  0  0  0 12  0  0
   -0.7500   -3.8971    0.0000 C   0  0  0  0  0  0  0  0  0 13  0  0
   -3.0000   -2.5981    0.0000 N   0  0  0  0  0  0  0  0  0  3  0  0
   -0.9462   -3.1715    0.0000 H   0  0  0  0  0  0  0  0  0  0  0  0
    3.7500   -3.8971    0.0000 C   0  0  0  0  0  0  0  0  0  8  0  0
    3.7500   -1.2990    0.0000 H   0  0  0  0  0  0  0  0  0  0  0  0
    1.5000   -5.1962    0.0000 C   0  0  0  0  0  0  0  0  0  9  0  0
    0.0000    5.1962    0.0000 H   0  0  0  0  0  0  0  0  0  0  0  0
    2.0490    4.6471    0.0000 H   0  0  0  0  0  0  0  0  0  0  0  0
   -0.5490    3.1471    0.0000 H   0  0  0  0  0  0  0  0  0  0  0  0
   -3.7500   -1.2990    0.0000 C   0  0  0  0  0  0  0  0  0 14  0  0
   -4.4095    0.5130    0.0000 H   0  0  0  0  0  0  0  0  0  0  0  0
   -2.7395    1.4772    0.0000 H   0  0  0  0  0  0  0  0  0  0  0  0
   -0.4895   -5.3743    0.0000 H   0  0  0  0  0  0  0  0  0  0  0  0
   -2.0865   -4.5781    0.0000 H   0  0  0  0  0  0  0  0  0  0  0  0
   -3.7500   -3.8971    0.0000 C   0  0  0  0  0  0  0  0  0  6  0  0
    3.0000   -5.1962    0.0000 C   0  0  0  0  0  0  0  0  0  7  0  0
    5.2500   -3.8971    0.0000 H   0  0  0  0  0  0  0  0  0  0  0  0
    0.7500   -6.4952    0.0000 H   0  0  0  0  0  0  0  0  0  0  0  0
   -5.0080   -2.1160    0.0000 H   0  0  0  0  0  0  0  0  0  0  0  0
   -4.8991   -0.3349    0.0000 H   0  0  0  0  0  0  0  0  0  0  0  0
   -4.5000   -5.1962    0.0000 H   0  0  0  0  0  0  0  0  0  0  0  0
   -5.1308   -3.3111    0.0000 H   0  0  0  0  0  0  0  0  0  0  0  0
   -2.5521   -4.7999    0.0000 H   0  0  0  0  0  0  0  0  0  0  0  0
    3.7500   -6.4952    0.0000 H   0  0  0  0  0  0  0  0  0  0  0  0
    3.7500    1.2990    0.0000 H   0  0  0  0  0  0  0  0  0  0  0  0
  1  2  1  0
  3  1  2  0
  1  4  1  0
  5  3  1  0
  3  6  1  0
  7  4  1  0
  4  8  2  0
  9  5  2  0
 10  5  1  0
  6 11  2  0
 12  6  1  0
  7 13  1  0
  8  9  1  0
  8 14  1  0
 15  9  1  0
 16 10  1  0
 10 17  1  0
 10 18  1  6
 11 19  1  0
 11 20  1  0
 21 12  2  0
 12 16  1  0
 13 22  1  0
 13 23  1  0
 13 24  1  0
 25 15  1  0
 15 26  1  0
 15 27  1  0
 16 28  1  0
 16 29  1  0
 17 30  1  0
 17 25  1  0
 19 31  2  0
 19 32  1  0
 31 21  1  0
 21 33  1  0
 25 34  1  0
 25 35  1  0
 30 36  1  0
 30 37  1  0
 30 38  1  0
 31 39  1  0
  2 40  1  0
M  END
>  <SMILES>  (3) 
COc1cc2c3c(c1O)-c1ccccc1CC3N(C)CC2

>  <Molecular Weight>  (3) 
281.4

>  <Substrate_ID>  (3) 
MOL0076

>  <Substrate>  (3) 


>  <Substrate_SMILES>  (3) 
COc1cc2c3c(c1OC)-c1ccccc1CC3N(C)CC2

>  <Reaction>  (3) 
O-demethylation

>  <Score>  (3) 
0.6153

>  <Reaction_Score>  (3) 
0.6269

>  <Bond_Score>  (3) 
0.604

>  <Rank>  (3) 
3

>  <Subtype>  (3) 
REACTION

>  <Subtype_Scores>  (3) 
[REACTION] SOM_score: 0.6040, Reaction_score: 0.6269, Score: 0.6153


$$$$
