
     RDKit          2D

 57 59  0  0  0  0  0  0  0  0999 V2000
    1.5000    0.0000    0.0000 C   0  0  0  0  0  0  0  0  0 24  0  0
    3.0000    0.0000    0.0000 O   0  0  0  0  0  0  0  0  0  7  0  0
    0.7500   -1.2990    0.0000 C   0  0  0  0  0  0  0  0  0 15  0  0
    0.7500    1.2990    0.0000 C   0  0  0  0  0  0  0  0  0 25  0  0
   -0.7500   -1.2990    0.0000 C   0  0  0  0  0  0  0  0  0 22  0  0
    1.5000   -2.5981    0.0000 H   0  0  0  0  0  0  0  0  0  0  0  0
    1.5000    2.5981    0.0000 C   0  0  0  0  0  0  0  0  0 30  0  0
   -0.7500    1.2990    0.0000 C   0  0  0  0  0  0  0  0  0 16  0  0
   -1.5000    0.0000    0.0000 C   0  0  0  0  0  0  0  0  0 23  0  0
   -1.5000   -2.5981    0.0000 C   0  0  0  0  0  0  0  0  0 10  0  0
    2.6491    1.6339    0.0000 C   0  0  0  0  0  0  0  0  0 27  0  0
    1.7605    4.0753    0.0000 S   0  0  0  0  0  0  0  0  0  1  0  0
    0.0905    3.1111    0.0000 H   0  0  0  0  0  0  0  0  0  0  0  0
   -1.5000    2.5981    0.0000 H   0  0  0  0  0  0  0  0  0  0  0  0
   -3.0000    0.0000    0.0000 C   0  0  0  0  0  0  0  0  0 18  0  0
   -2.2500   -3.8971    0.0000 H   0  0  0  0  0  0  0  0  0  0  0  0
   -2.8808   -2.0120    0.0000 H   0  0  0  0  0  0  0  0  0  0  0  0
   -0.2010   -3.3481    0.0000 H   0  0  0  0  0  0  0  0  0  0  0  0
    4.0586    2.1469    0.0000 C   0  0  0  0  0  0  0  0  0 26  0  0
    3.3991    0.3349    0.0000 O   0  0  0  0  0  0  0  0  0  4  0  0
    1.7675    0.4203    0.0000 H   0  0  0  0  0  0  0  0  0  0  0  0
    3.1700    4.5883    0.0000 C   0  0  0  0  0  0  0  0  0 29  0  0
   -4.5000    0.0000    0.0000 C   0  0  0  0  0  0  0  0  0 20  0  0
   -3.0000    1.5000    0.0000 H   0  0  0  0  0  0  0  0  0  0  0  0
   -3.1828   -1.4888    0.0000 H   0  0  0  0  0  0  0  0  0  0  0  0
    4.3191    3.6241    0.0000 C   0  0  0  0  0  0  0  0  0 28  0  0
    5.5586    2.1469    0.0000 O   0  0  0  0  0  0  0  0  0  3  0  0
    4.4972    0.7125    0.0000 H   0  0  0  0  0  0  0  0  0  0  0  0
    4.8879    0.1520    0.0000 H   0  0  0  0  0  0  0  0  0  0  0  0
    2.4200    5.8874    0.0000 C   0  0  0  0  0  0  0  0  0 19  0  0
    4.3191    5.5525    0.0000 H   0  0  0  0  0  0  0  0  0  0  0  0
   -5.2500    1.2990    0.0000 C   0  0  0  0  0  0  0  0  0 11  0  0
   -5.2500   -1.2990    0.0000 C   0  0  0  0  0  0  0  0  0 12  0  0
    5.0691    4.9232    0.0000 O   0  0  0  0  0  0  0  0  0  5  0  0
    5.7806    3.2867    0.0000 H   0  0  0  0  0  0  0  0  0  0  0  0
    6.4614    3.3449    0.0000 H   0  0  0  0  0  0  0  0  0  0  0  0
    1.6700    7.1864    0.0000 O   0  0  0  0  0  0  0  0  0  2  0  0
    3.7190    6.6374    0.0000 H   0  0  0  0  0  0  0  0  0  0  0  0
    1.1210    5.1374    0.0000 H   0  0  0  0  0  0  0  0  0  0  0  0
   -6.7500    1.2990    0.0000 C   0  0  0  0  0  0  0  0  0 13  0  0
   -4.5000    2.5981    0.0000 H   0  0  0  0  0  0  0  0  0  0  0  0
   -6.7500   -1.2990    0.0000 C   0  0  0  0  0  0  0  0  0 14  0  0
   -4.5000   -2.5981    0.0000 H   0  0  0  0  0  0  0  0  0  0  0  0
    6.5691    4.9232    0.0000 H   0  0  0  0  0  0  0  0  0  0  0  0
    0.1700    7.1864    0.0000 H   0  0  0  0  0  0  0  0  0  0  0  0
   -7.5000    0.0000    0.0000 C   0  0  0  0  0  0  0  0  0 21  0  0
   -7.5000    2.5981    0.0000 H   0  0  0  0  0  0  0  0  0  0  0  0
   -7.5000   -2.5981    0.0000 H   0  0  0  0  0  0  0  0  0  0  0  0
   -9.0000    0.0000    0.0000 O   0  0  0  0  0  0  0  0  0  6  0  0
   -9.7500    1.2990    0.0000 C   0  0  0  0  0  0  0  0  0 17  0  0
  -10.5000    2.5981    0.0000 C   0  0  0  0  0  0  0  0  0  8  0  0
   -8.4510    2.0490    0.0000 H   0  0  0  0  0  0  0  0  0  0  0  0
  -11.0490    0.5490    0.0000 H   0  0  0  0  0  0  0  0  0  0  0  0
  -11.2500    3.8971    0.0000 H   0  0  0  0  0  0  0  0  0  0  0  0
   -9.2010    3.3481    0.0000 H   0  0  0  0  0  0  0  0  0  0  0  0
  -11.7990    1.8481    0.0000 H   0  0  0  0  0  0  0  0  0  0  0  0
    3.7500   -1.2990    0.0000 H   0  0  0  0  0  0  0  0  0  0  0  0
  1  2  1  0
  3  1  2  0
  1  4  1  0
  5  3  1  0
  3  6  1  0
  7  4  1  0
  4  8  2  0
  9  5  2  0
  5 10  1  0
 11  7  1  0
  7 12  1  0
  7 13  1  1
  8  9  1  0
  8 14  1  0
  9 15  1  0
 10 16  1  0
 10 17  1  0
 10 18  1  0
 19 11  1  0
 11 20  1  0
 11 21  1  6
 12 22  1  0
 15 23  1  0
 15 24  1  0
 15 25  1  0
 26 19  1  0
 19 27  1  0
 19 28  1  1
 20 29  1  0
 22 30  1  0
 22 26  1  0
 22 31  1  1
 23 32  2  0
 33 23  1  0
 26 34  1  0
 26 35  1  6
 27 36  1  0
 30 37  1  0
 30 38  1  0
 30 39  1  0
 32 40  1  0
 32 41  1  0
 42 33  2  0
 33 43  1  0
 34 44  1  0
 37 45  1  0
 40 46  2  0
 40 47  1  0
 46 42  1  0
 42 48  1  0
 46 49  1  0
 49 50  1  0
 50 51  1  0
 50 52  1  0
 50 53  1  0
 51 54  1  0
 51 55  1  0
 51 56  1  0
  2 57  1  0
M  END
>  <SMILES>  (1) 
CCOc1ccc(Cc2cc(C3SC(CO)C(O)C(O)C3O)c(O)cc2C)cc1

>  <Molecular Weight>  (1) 
420.5

>  <Substrate_ID>  (1) 
MOL0045

>  <Substrate>  (1) 


>  <Substrate_SMILES>  (1) 
CCOc1ccc(Cc2cc(C3SC(CO)C(O)C(O)C3O)c(OC)cc2C)cc1

>  <Reaction>  (1) 
O-demethylation

>  <Score>  (1) 
0.4617

>  <Reaction_Score>  (1) 
0.468

>  <Bond_Score>  (1) 
0.4555

>  <Rank>  (1) 
1

>  <Subtype>  (1) 
REACTION

>  <Subtype_Scores>  (1) 
[REACTION] SOM_score: 0.4555, Reaction_score: 0.4680, Score: 0.4617


$$$$

     RDKit          2D

 54 56  0  0  0  0  0  0  0  0999 V2000
    1.5000    0.0000    0.0000 C   0  0  0  0  0  0  0  0  0 21  0  0
    3.0000    0.0000    0.0000 O   0  0  0  0  0  0  0  0  0  6  0  0
    0.7500   -1.2990    0.0000 C   0  0  0  0  0  0  0  0  0 13  0  0
    0.7500    1.2990    0.0000 C   0  0  0  0  0  0  0  0  0 14  0  0
   -0.7500   -1.2990    0.0000 C   0  0  0  0  0  0  0  0  0 11  0  0
    1.5000   -2.5981    0.0000 H   0  0  0  0  0  0  0  0  0  0  0  0
   -0.7500    1.2990    0.0000 C   0  0  0  0  0  0  0  0  0 12  0  0
    1.5000    2.5981    0.0000 H   0  0  0  0  0  0  0  0  0  0  0  0
   -1.5000    0.0000    0.0000 C   0  0  0  0  0  0  0  0  0 20  0  0
   -1.5000   -2.5981    0.0000 H   0  0  0  0  0  0  0  0  0  0  0  0
   -1.5000    2.5981    0.0000 H   0  0  0  0  0  0  0  0  0  0  0  0
   -3.0000    0.0000    0.0000 C   0  0  0  0  0  0  0  0  0 18  0  0
   -4.5000    0.0000    0.0000 C   0  0  0  0  0  0  0  0  0 23  0  0
   -3.0000    1.5000    0.0000 H   0  0  0  0  0  0  0  0  0  0  0  0
   -2.8519   -1.2059    0.0000 H   0  0  0  0  0  0  0  0  0  0  0  0
   -5.2500    1.2990    0.0000 C   0  0  0  0  0  0  0  0  0 16  0  0
   -5.2500   -1.2990    0.0000 C   0  0  0  0  0  0  0  0  0 22  0  0
   -6.7500    1.2990    0.0000 C   0  0  0  0  0  0  0  0  0 25  0  0
   -4.5000    2.5981    0.0000 H   0  0  0  0  0  0  0  0  0  0  0  0
   -4.5000   -2.5981    0.0000 C   0  0  0  0  0  0  0  0  0 10  0  0
   -6.7500   -1.2990    0.0000 C   0  0  0  0  0  0  0  0  0 15  0  0
   -7.5000    2.5981    0.0000 C   0  0  0  0  0  0  0  0  0 30  0  0
   -7.5000    0.0000    0.0000 C   0  0  0  0  0  0  0  0  0 24  0  0
   -3.7500   -3.8971    0.0000 H   0  0  0  0  0  0  0  0  0  0  0  0
   -5.7990   -3.3481    0.0000 H   0  0  0  0  0  0  0  0  0  0  0  0
   -3.3816   -2.1234    0.0000 H   0  0  0  0  0  0  0  0  0  0  0  0
   -7.5000   -2.5981    0.0000 H   0  0  0  0  0  0  0  0  0  0  0  0
   -8.6491    1.6339    0.0000 C   0  0  0  0  0  0  0  0  0 27  0  0
   -7.7605    4.0753    0.0000 S   0  0  0  0  0  0  0  0  0  1  0  0
   -6.0905    3.1111    0.0000 H   0  0  0  0  0  0  0  0  0  0  0  0
   -9.0000    0.0000    0.0000 O   0  0  0  0  0  0  0  0  0  7  0  0
  -10.0586    2.1469    0.0000 C   0  0  0  0  0  0  0  0  0 26  0  0
   -9.3991    0.3349    0.0000 O   0  0  0  0  0  0  0  0  0  4  0  0
   -7.7675    0.4203    0.0000 H   0  0  0  0  0  0  0  0  0  0  0  0
   -9.1700    4.5883    0.0000 C   0  0  0  0  0  0  0  0  0 29  0  0
   -9.7500   -1.2990    0.0000 C   0  0  0  0  0  0  0  0  0  9  0  0
  -10.3191    3.6241    0.0000 C   0  0  0  0  0  0  0  0  0 28  0  0
  -11.5586    2.1469    0.0000 O   0  0  0  0  0  0  0  0  0  3  0  0
  -10.4972    0.7125    0.0000 H   0  0  0  0  0  0  0  0  0  0  0  0
  -10.8991    0.3349    0.0000 H   0  0  0  0  0  0  0  0  0  0  0  0
   -8.4200    5.8874    0.0000 C   0  0  0  0  0  0  0  0  0 19  0  0
  -10.3191    5.5525    0.0000 H   0  0  0  0  0  0  0  0  0  0  0  0
  -10.5000   -2.5981    0.0000 H   0  0  0  0  0  0  0  0  0  0  0  0
  -11.1308   -0.7130    0.0000 H   0  0  0  0  0  0  0  0  0  0  0  0
   -8.4510   -2.0490    0.0000 H   0  0  0  0  0  0  0  0  0  0  0  0
  -11.0691    4.9232    0.0000 O   0  0  0  0  0  0  0  0  0  5  0  0
  -11.7806    3.2867    0.0000 H   0  0  0  0  0  0  0  0  0  0  0  0
  -12.4614    3.3449    0.0000 H   0  0  0  0  0  0  0  0  0  0  0  0
   -7.6700    7.1864    0.0000 O   0  0  0  0  0  0  0  0  0  2  0  0
   -9.7190    6.6374    0.0000 H   0  0  0  0  0  0  0  0  0  0  0  0
   -7.1210    5.1374    0.0000 H   0  0  0  0  0  0  0  0  0  0  0  0
  -12.5691    4.9232    0.0000 H   0  0  0  0  0  0  0  0  0  0  0  0
   -6.1700    7.1864    0.0000 H   0  0  0  0  0  0  0  0  0  0  0  0
    3.7500   -1.2990    0.0000 H   0  0  0  0  0  0  0  0  0  0  0  0
  1  2  1  0
  3  1  2  0
  1  4  1  0
  5  3  1  0
  3  6  1  0
  4  7  2  0
  4  8  1  0
  9  5  2  0
  5 10  1  0
  7  9  1  0
  7 11  1  0
 12  9  1  0
 13 12  1  0
 12 14  1  0
 12 15  1  0
 16 13  2  0
 13 17  1  0
 18 16  1  0
 16 19  1  0
 17 20  1  0
 17 21  2  0
 22 18  1  0
 23 18  2  0
 20 24  1  0
 20 25  1  0
 20 26  1  0
 21 23  1  0
 21 27  1  0
 28 22  1  0
 22 29  1  0
 22 30  1  6
 23 31  1  0
 32 28  1  0
 28 33  1  0
 28 34  1  1
 29 35  1  0
 31 36  1  0
 37 32  1  0
 32 38  1  0
 32 39  1  6
 33 40  1  0
 35 41  1  0
 35 37  1  0
 35 42  1  6
 36 43  1  0
 36 44  1  0
 36 45  1  0
 37 46  1  0
 37 47  1  1
 38 48  1  0
 41 49  1  0
 41 50  1  0
 41 51  1  0
 46 52  1  0
 49 53  1  0
  2 54  1  0
M  END
>  <SMILES>  (2) 
COc1cc(C)c(Cc2ccc(O)cc2)cc1C1SC(CO)C(O)C(O)C1O

>  <Molecular Weight>  (2) 
406.5

>  <Substrate_ID>  (2) 
MOL0045

>  <Substrate>  (2) 


>  <Substrate_SMILES>  (2) 
CCOc1ccc(Cc2cc(C3SC(CO)C(O)C(O)C3O)c(OC)cc2C)cc1

>  <Reaction>  (2) 
O-dealkylation_(aromatic)

>  <Score>  (2) 
0.4289

>  <Reaction_Score>  (2) 
0.4364

>  <Bond_Score>  (2) 
0.4216

>  <Rank>  (2) 
2

>  <Subtype>  (2) 
REACTION

>  <Subtype_Scores>  (2) 
[REACTION] SOM_score: 0.4216, Reaction_score: 0.4364, Score: 0.4289


$$$$
