
     RDKit          2D

 48 50  0  0  0  0  0  0  0  0999 V2000
    1.5000    0.0000    0.0000 C   0  0  0  0  0  0  0  0  0 23  0  0
    3.0000    0.0000    0.0000 C   0  0  0  0  0  0  0  0  0  7  0  0
    4.5000    0.0000    0.0000 O   0  0  0  0  0  0  0  0  0 29  0  0
    0.7500   -1.2990    0.0000 C   0  0  0  0  0  0  0  0  0 10  0  0
    0.7500    1.2990    0.0000 C   0  0  0  0  0  0  0  0  0 11  0  0
   -0.7500   -1.2990    0.0000 C   0  0  0  0  0  0  0  0  0 20  0  0
    1.5000   -2.5981    0.0000 H   0  0  0  0  0  0  0  0  0  0  0  0
   -0.7500    1.2990    0.0000 C   0  0  0  0  0  0  0  0  0 21  0  0
    1.5000    2.5981    0.0000 H   0  0  0  0  0  0  0  0  0  0  0  0
   -1.5000    0.0000    0.0000 C   0  0  0  0  0  0  0  0  0 28  0  0
   -1.5000   -2.5981    0.0000 H   0  0  0  0  0  0  0  0  0  0  0  0
   -1.5000    2.5981    0.0000 H   0  0  0  0  0  0  0  0  0  0  0  0
   -3.0000    0.0000    0.0000 S   0  0  0  0  0  6  0  0  0  1  0  0
   -3.0000    1.5000    0.0000 O   0  0  0  0  0  0  0  0  0  3  0  0
   -3.0000   -1.5000    0.0000 O   0  0  0  0  0  0  0  0  0  4  0  0
   -4.5000    0.0000    0.0000 N   0  0  0  0  0  0  0  0  0  6  0  0
   -5.2500    1.2990    0.0000 C   0  0  0  0  0  0  0  0  0 26  0  0
   -5.2500   -1.2990    0.0000 H   0  0  0  0  0  0  0  0  0  0  0  0
   -4.5000    2.5981    0.0000 C   0  0  0  0  0  0  0  0  0 16  0  0
   -6.7500    1.2990    0.0000 C   0  0  0  0  0  0  0  0  0 17  0  0
   -5.2500    3.8971    0.0000 C   0  0  0  0  0  0  0  0  0 18  0  0
   -3.0000    2.5981    0.0000 H   0  0  0  0  0  0  0  0  0  0  0  0
   -7.5000    2.5981    0.0000 C   0  0  0  0  0  0  0  0  0 19  0  0
   -7.5000    0.0000    0.0000 H   0  0  0  0  0  0  0  0  0  0  0  0
   -6.7500    3.8971    0.0000 C   0  0  0  0  0  0  0  0  0 27  0  0
   -4.5000    5.1962    0.0000 H   0  0  0  0  0  0  0  0  0  0  0  0
   -9.0000    2.5981    0.0000 H   0  0  0  0  0  0  0  0  0  0  0  0
   -7.5000    5.1962    0.0000 C   0  0  0  0  0  0  0  0  0 22  0  0
   -9.0000    5.1962    0.0000 O   0  0  0  0  0  0  0  0  0  2  0  0
   -6.7500    6.4952    0.0000 C   0  0  0  0  0  0  0  0  0  8  0  0
   -7.5000    7.7942    0.0000 C   0  0  0  0  0  0  0  0  0  9  0  0
   -5.2500    6.4952    0.0000 H   0  0  0  0  0  0  0  0  0  0  0  0
   -6.7500    9.0933    0.0000 C   0  0  0  0  0  0  0  0  0 25  0  0
   -9.0000    7.7942    0.0000 H   0  0  0  0  0  0  0  0  0  0  0  0
   -5.2500    9.0933    0.0000 C   0  0  0  0  0  0  0  0  0 14  0  0
   -7.5000   10.3923    0.0000 C   0  0  0  0  0  0  0  0  0 15  0  0
   -4.5000   10.3923    0.0000 C   0  0  0  0  0  0  0  0  0 12  0  0
   -4.5000    7.7942    0.0000 H   0  0  0  0  0  0  0  0  0  0  0  0
   -6.7500   11.6913    0.0000 C   0  0  0  0  0  0  0  0  0 13  0  0
   -9.0000   10.3923    0.0000 H   0  0  0  0  0  0  0  0  0  0  0  0
   -5.2500   11.6913    0.0000 C   0  0  0  0  0  0  0  0  0 24  0  0
   -3.0000   10.3923    0.0000 H   0  0  0  0  0  0  0  0  0  0  0  0
   -7.5000   12.9904    0.0000 H   0  0  0  0  0  0  0  0  0  0  0  0
   -4.5000   12.9904    0.0000 O   0  0  0  0  0  0  0  0  0  5  0  0
   -3.0000   12.9904    0.0000 H   0  0  0  0  0  0  0  0  0  0  0  0
    3.0000    1.5000    0.0000 H   0  0  0  0  0  0  0  0  0  0  0  0
    3.0000   -1.5000    0.0000 H   0  0  0  0  0  0  0  0  0  0  0  0
    5.2500    1.2990    0.0000 H   0  0  0  0  0  0  0  0  0  0  0  0
  1  2  1  0
  2  3  1  0
  4  1  2  0
  1  5  1  0
  6  4  1  0
  4  7  1  0
  5  8  2  0
  5  9  1  0
 10  6  2  0
  6 11  1  0
  8 10  1  0
  8 12  1  0
 13 10  1  0
 13 14  2  0
 13 15  2  0
 13 16  1  0
 16 17  1  0
 16 18  1  0
 17 19  2  0
 20 17  1  0
 19 21  1  0
 19 22  1  0
 23 20  2  0
 20 24  1  0
 21 25  2  0
 21 26  1  0
 25 23  1  0
 23 27  1  0
 25 28  1  0
 28 29  2  0
 28 30  1  0
 30 31  2  0
 30 32  1  0
 31 33  1  0
 31 34  1  0
 33 35  2  0
 36 33  1  0
 35 37  1  0
 35 38  1  0
 39 36  2  0
 36 40  1  0
 37 41  2  0
 37 42  1  0
 41 39  1  0
 39 43  1  0
 41 44  1  0
 44 45  1  0
  2 46  1  0
  2 47  1  0
  3 48  1  0
M  END
>  <SMILES>  (1) 
O=C(C=Cc1ccc(O)cc1)c1ccc(NS(=O)(=O)c2ccc(CO)cc2)cc1

>  <Molecular Weight>  (1) 
409.5

>  <Substrate_ID>  (1) 
MOL0058

>  <Substrate>  (1) 


>  <Substrate_SMILES>  (1) 
Cc1ccc(S(=O)(=O)Nc2ccc(C(=O)C=Cc3ccc(O)cc3)cc2)cc1

>  <Reaction>  (1) 
benzylic_hydroxylation_(c-CH3),aliphatic hydroxylation

>  <Score>  (1) 
0.6235

>  <Reaction_Score>  (1) 
0.6049

>  <Bond_Score>  (1) 
0.6427

>  <Rank>  (1) 
1

>  <Subtype>  (1) 
REACTION

>  <Subtype_Scores>  (1) 
[REACTION] SOM_score: 0.6427, Reaction_score: 0.6049, Score: 0.6235


$$$$

     RDKit          2D

 48 50  0  0  0  0  0  0  0  0999 V2000
    3.0000    0.0000    0.0000 O   0  0  0  0  0  0  0  0  0  5  0  0
    1.5000    0.0000    0.0000 C   0  0  0  0  0  0  0  0  0 24  0  0
    0.7500   -1.2990    0.0000 C   0  0  0  0  0  0  0  0  0 12  0  0
    1.5000   -2.5981    0.0000 O   0  0  0  0  0  0  0  0  0 29  0  0
   -0.7500   -1.2990    0.0000 C   0  0  0  0  0  0  0  0  0 14  0  0
   -1.5000    0.0000    0.0000 C   0  0  0  0  0  0  0  0  0 25  0  0
   -0.7500    1.2990    0.0000 C   0  0  0  0  0  0  0  0  0 15  0  0
    0.7500    1.2990    0.0000 C   0  0  0  0  0  0  0  0  0 13  0  0
    3.7500   -1.2990    0.0000 H   0  0  0  0  0  0  0  0  0  0  0  0
   -1.5000   -2.5981    0.0000 H   0  0  0  0  0  0  0  0  0  0  0  0
   -3.0000    0.0000    0.0000 C   0  0  0  0  0  0  0  0  0  9  0  0
   -3.7500    1.2990    0.0000 C   0  0  0  0  0  0  0  0  0  8  0  0
   -3.7500   -1.2990    0.0000 H   0  0  0  0  0  0  0  0  0  0  0  0
   -5.2500    1.2990    0.0000 C   0  0  0  0  0  0  0  0  0 22  0  0
   -3.0000    2.5981    0.0000 H   0  0  0  0  0  0  0  0  0  0  0  0
   -6.0000    2.5981    0.0000 C   0  0  0  0  0  0  0  0  0 27  0  0
   -6.0000   -0.0000    0.0000 O   0  0  0  0  0  0  0  0  0  2  0  0
   -5.2500    3.8971    0.0000 C   0  0  0  0  0  0  0  0  0 18  0  0
   -7.5000    2.5981    0.0000 C   0  0  0  0  0  0  0  0  0 19  0  0
   -6.0000    5.1962    0.0000 C   0  0  0  0  0  0  0  0  0 16  0  0
   -3.7500    3.8971    0.0000 H   0  0  0  0  0  0  0  0  0  0  0  0
   -8.2500    3.8971    0.0000 C   0  0  0  0  0  0  0  0  0 17  0  0
   -8.2500    1.2990    0.0000 H   0  0  0  0  0  0  0  0  0  0  0  0
   -7.5000    5.1962    0.0000 C   0  0  0  0  0  0  0  0  0 26  0  0
   -5.2500    6.4952    0.0000 H   0  0  0  0  0  0  0  0  0  0  0  0
   -9.7500    3.8971    0.0000 H   0  0  0  0  0  0  0  0  0  0  0  0
   -8.2500    6.4952    0.0000 N   0  0  0  0  0  0  0  0  0  6  0  0
   -9.7500    6.4952    0.0000 S   0  0  0  0  0  6  0  0  0  1  0  0
   -7.5000    7.7942    0.0000 H   0  0  0  0  0  0  0  0  0  0  0  0
   -9.7500    4.9952    0.0000 O   0  0  0  0  0  0  0  0  0  3  0  0
   -9.7500    7.9952    0.0000 O   0  0  0  0  0  0  0  0  0  4  0  0
  -11.2500    6.4952    0.0000 C   0  0  0  0  0  0  0  0  0 28  0  0
  -12.0000    7.7942    0.0000 C   0  0  0  0  0  0  0  0  0 20  0  0
  -12.0000    5.1962    0.0000 C   0  0  0  0  0  0  0  0  0 21  0  0
  -13.5000    7.7942    0.0000 C   0  0  0  0  0  0  0  0  0 10  0  0
  -11.2500    9.0933    0.0000 H   0  0  0  0  0  0  0  0  0  0  0  0
  -13.5000    5.1962    0.0000 C   0  0  0  0  0  0  0  0  0 11  0  0
  -11.2500    3.8971    0.0000 H   0  0  0  0  0  0  0  0  0  0  0  0
  -14.2500    6.4952    0.0000 C   0  0  0  0  0  0  0  0  0 23  0  0
  -14.2500    9.0933    0.0000 H   0  0  0  0  0  0  0  0  0  0  0  0
  -14.2500    3.8971    0.0000 H   0  0  0  0  0  0  0  0  0  0  0  0
  -15.7500    6.4952    0.0000 C   0  0  0  0  0  0  0  0  0  7  0  0
  -15.7500    7.9952    0.0000 H   0  0  0  0  0  0  0  0  0  0  0  0
  -15.7500    4.9952    0.0000 H   0  0  0  0  0  0  0  0  0  0  0  0
  -17.2500    6.4952    0.0000 H   0  0  0  0  0  0  0  0  0  0  0  0
   -1.5000    2.5981    0.0000 H   0  0  0  0  0  0  0  0  0  0  0  0
    1.5000    2.5981    0.0000 H   0  0  0  0  0  0  0  0  0  0  0  0
    0.7500   -3.8971    0.0000 H   0  0  0  0  0  0  0  0  0  0  0  0
  1  2  1  0
  2  3  2  0
  3  4  1  0
  3  5  1  0
  5  6  2  0
  6  7  1  0
  7  8  2  0
  8  2  1  0
  1  9  1  0
  5 10  1  0
 11  6  1  0
 12 11  2  0
 11 13  1  0
 14 12  1  0
 12 15  1  0
 16 14  1  0
 14 17  2  0
 18 16  2  0
 16 19  1  0
 20 18  1  0
 18 21  1  0
 19 22  2  0
 19 23  1  0
 24 20  2  0
 20 25  1  0
 22 24  1  0
 22 26  1  0
 27 24  1  0
 28 27  1  0
 27 29  1  0
 28 30  2  0
 28 31  2  0
 28 32  1  0
 32 33  2  0
 34 32  1  0
 33 35  1  0
 33 36  1  0
 37 34  2  0
 34 38  1  0
 35 39  2  0
 35 40  1  0
 39 37  1  0
 37 41  1  0
 39 42  1  0
 42 43  1  0
 42 44  1  0
 42 45  1  0
  7 46  1  0
  8 47  1  0
  4 48  1  0
M  END
>  <SMILES>  (2) 
Cc1ccc(S(=O)(=O)Nc2ccc(C(=O)C=Cc3ccc(O)c(O)c3)cc2)cc1

>  <Molecular Weight>  (2) 
409.5

>  <Substrate_ID>  (2) 
MOL0058

>  <Substrate>  (2) 


>  <Substrate_SMILES>  (2) 
Cc1ccc(S(=O)(=O)Nc2ccc(C(=O)C=Cc3ccc(O)cc3)cc2)cc1

>  <Reaction>  (2) 
aromatic_hydroxylation_(ortho_to_oxygen),aromatic hydroxylation

>  <Score>  (2) 
0.372

>  <Reaction_Score>  (2) 
0.3848

>  <Bond_Score>  (2) 
0.3596

>  <Rank>  (2) 
2

>  <Subtype>  (2) 
REACTION

>  <Subtype_Scores>  (2) 
[REACTION] SOM_score: 0.3519, Reaction_score: 0.3814, Score: 0.3664


$$$$
