
     RDKit          2D

 48 50  0  0  0  0  0  0  0  0999 V2000
   -6.1829    3.2110    0.0000 N   0  0  0  0  0  0  0  0  0  2  0  0
   -4.6912    3.0542    0.0000 C   0  0  0  0  0  0  0  0  0 11  0  0
   -6.7930    4.5813    0.0000 C   0  0  0  0  0  0  0  0  0 14  0  0
   -3.1994    2.8974    0.0000 C   0  0  0  0  0  0  0  0  0 10  0  0
   -4.8479    1.5624    0.0000 H   0  0  0  0  0  0  0  0  0  0  0  0
   -4.5344    4.5460    0.0000 H   0  0  0  0  0  0  0  0  0  0  0  0
   -7.4031    5.9517    0.0000 C   0  0  0  0  0  0  0  0  0 15  0  0
   -5.4227    5.1914    0.0000 H   0  0  0  0  0  0  0  0  0  0  0  0
   -8.1634    3.9712    0.0000 H   0  0  0  0  0  0  0  0  0  0  0  0
   -1.7076    2.7406    0.0000 C   0  0  0  0  0  0  0  0  0  9  0  0
   -3.3562    1.4056    0.0000 H   0  0  0  0  0  0  0  0  0  0  0  0
   -3.0426    4.3892    0.0000 H   0  0  0  0  0  0  0  0  0  0  0  0
   -8.0133    7.3220    0.0000 H   0  0  0  0  0  0  0  0  0  0  0  0
   -6.0328    6.5618    0.0000 H   0  0  0  0  0  0  0  0  0  0  0  0
   -8.7735    5.3415    0.0000 H   0  0  0  0  0  0  0  0  0  0  0  0
   -0.2158    2.5838    0.0000 N   0  0  0  0  0  0  0  0  0  1  0  0
   -1.7909    1.9478    0.0000 H   0  0  0  0  0  0  0  0  0  0  0  0
   -1.5508    4.2324    0.0000 H   0  0  0  0  0  0  0  0  0  0  0  0
    0.6659    3.7974    0.0000 C   0  0  0  0  0  0  0  0  0  6  0  0
    0.3943    1.2135    0.0000 C   0  0  0  0  0  0  0  0  0 16  0  0
    2.1577    3.6406    0.0000 C   0  0  0  0  0  0  0  0  0  5  0  0
    0.0558    5.1677    0.0000 C   0  0  0  0  0  0  0  0  0  7  0  0
    1.2760    0.0000    0.0000 C   0  0  0  0  0  0  0  0  0 17  0  0
   -1.0323    0.7500    0.0000 C   0  0  0  0  0  0  0  0  0 24  0  0
    1.6933    1.9635    0.0000 H   0  0  0  0  0  0  0  0  0  0  0  0
    3.0393    4.8541    0.0000 C   0  0  0  0  0  0  0  0  0  4  0  0
    2.7678    2.2703    0.0000 H   0  0  0  0  0  0  0  0  0  0  0  0
    0.9374    6.3812    0.0000 C   0  0  0  0  0  0  0  0  0  8  0  0
   -1.4360    5.3245    0.0000 H   0  0  0  0  0  0  0  0  0  0  0  0
    0.3943   -1.2135    0.0000 C   0  0  0  0  0  0  0  0  0 18  0  0
    2.3907    1.0037    0.0000 H   0  0  0  0  0  0  0  0  0  0  0  0
    2.3907   -1.0037    0.0000 H   0  0  0  0  0  0  0  0  0  0  0  0
   -1.0323   -0.7500    0.0000 C   0  0  0  0  0  0  0  0  0 23  0  0
   -2.5241    0.5932    0.0000 H   0  0  0  0  0  0  0  0  0  0  0  0
   -1.3818    1.4665    0.0000 H   0  0  0  0  0  0  0  0  0  0  0  0
    2.4292    6.2244    0.0000 C   0  0  0  0  0  0  0  0  0  3  0  0
    4.5311    4.6973    0.0000 H   0  0  0  0  0  0  0  0  0  0  0  0
    0.3273    7.7515    0.0000 H   0  0  0  0  0  0  0  0  0  0  0  0
    0.7062   -2.6807    0.0000 C   0  0  0  0  0  0  0  0  0 19  0  0
   -2.1470   -1.7537    0.0000 C   0  0  0  0  0  0  0  0  0 22  0  0
    3.3109    7.4379    0.0000 H   0  0  0  0  0  0  0  0  0  0  0  0
   -0.4086   -3.6844    0.0000 C   0  0  0  0  0  0  0  0  0 20  0  0
    2.1328   -3.1443    0.0000 H   0  0  0  0  0  0  0  0  0  0  0  0
   -1.8351   -3.2209    0.0000 C   0  0  0  0  0  0  0  0  0 21  0  0
   -3.5736   -1.2902    0.0000 H   0  0  0  0  0  0  0  0  0  0  0  0
   -0.0967   -5.1517    0.0000 H   0  0  0  0  0  0  0  0  0  0  0  0
   -2.9499   -4.2246    0.0000 H   0  0  0  0  0  0  0  0  0  0  0  0
   -7.0646    1.9975    0.0000 H   0  0  0  0  0  0  0  0  0  0  0  0
  2  1  1  0
  1  3  1  0
  4  2  1  0
  2  5  1  0
  2  6  1  0
  3  7  1  0
  3  8  1  0
  3  9  1  0
 10  4  1  0
  4 11  1  0
  4 12  1  0
  7 13  1  0
  7 14  1  0
  7 15  1  0
 16 10  1  0
 10 17  1  0
 10 18  1  0
 16 19  1  0
 16 20  1  0
 19 21  2  0
 22 19  1  0
 20 23  1  0
 24 20  1  0
 20 25  1  0
 21 26  1  0
 21 27  1  0
 28 22  2  0
 22 29  1  0
 23 30  1  0
 23 31  1  0
 23 32  1  0
 33 24  1  0
 24 34  1  0
 24 35  1  0
 26 36  2  0
 26 37  1  0
 36 28  1  0
 28 38  1  0
 30 39  1  0
 33 30  2  0
 40 33  1  0
 36 41  1  0
 39 42  2  0
 39 43  1  0
 44 40  2  0
 40 45  1  0
 42 44  1  0
 42 46  1  0
 44 47  1  0
  1 48  1  0
M  END
>  <SMILES>  (1) 
CCNCCCN(c1ccccc1)C1Cc2ccccc2C1

>  <Molecular Weight>  (1) 
294.4

>  <Substrate_ID>  (1) 
MOL0095

>  <Substrate>  (1) 


>  <Substrate_SMILES>  (1) 
CCN(CC)CCCN(c1ccccc1)C1Cc2ccccc2C1

>  <Reaction>  (1) 
N-dealkylation_(tertiaryN-CH2-alkyl)

>  <Score>  (1) 
0.9176

>  <Reaction_Score>  (1) 
0.9078

>  <Bond_Score>  (1) 
0.9275

>  <Rank>  (1) 
1

>  <Subtype>  (1) 
REACTION

>  <Subtype_Scores>  (1) 
[REACTION] SOM_score: 0.9275, Reaction_score: 0.9078, Score: 0.9176


$$$$

     RDKit          2D

 31 33  0  0  0  0  0  0  0  0999 V2000
   -0.2158    2.5838    0.0000 N   0  0  0  0  0  0  0  0  0  1  0  0
    0.6659    3.7974    0.0000 C   0  0  0  0  0  0  0  0  0  6  0  0
    0.3943    1.2135    0.0000 C   0  0  0  0  0  0  0  0  0 16  0  0
    2.1577    3.6406    0.0000 C   0  0  0  0  0  0  0  0  0  5  0  0
    0.0558    5.1677    0.0000 C   0  0  0  0  0  0  0  0  0  7  0  0
    1.2760    0.0000    0.0000 C   0  0  0  0  0  0  0  0  0 17  0  0
   -1.0323    0.7500    0.0000 C   0  0  0  0  0  0  0  0  0 24  0  0
    1.6933    1.9635    0.0000 H   0  0  0  0  0  0  0  0  0  0  0  0
    3.0393    4.8541    0.0000 C   0  0  0  0  0  0  0  0  0  4  0  0
    2.7678    2.2703    0.0000 H   0  0  0  0  0  0  0  0  0  0  0  0
    0.9374    6.3812    0.0000 C   0  0  0  0  0  0  0  0  0  8  0  0
   -1.4360    5.3245    0.0000 H   0  0  0  0  0  0  0  0  0  0  0  0
    0.3943   -1.2135    0.0000 C   0  0  0  0  0  0  0  0  0 18  0  0
    2.3907    1.0037    0.0000 H   0  0  0  0  0  0  0  0  0  0  0  0
    2.3907   -1.0037    0.0000 H   0  0  0  0  0  0  0  0  0  0  0  0
   -1.0323   -0.7500    0.0000 C   0  0  0  0  0  0  0  0  0 23  0  0
   -2.5241    0.5932    0.0000 H   0  0  0  0  0  0  0  0  0  0  0  0
   -1.4279    1.8988    0.0000 H   0  0  0  0  0  0  0  0  0  0  0  0
    2.4292    6.2244    0.0000 C   0  0  0  0  0  0  0  0  0  3  0  0
    4.5311    4.6973    0.0000 H   0  0  0  0  0  0  0  0  0  0  0  0
    0.3273    7.7515    0.0000 H   0  0  0  0  0  0  0  0  0  0  0  0
    0.7062   -2.6807    0.0000 C   0  0  0  0  0  0  0  0  0 19  0  0
   -2.1470   -1.7537    0.0000 C   0  0  0  0  0  0  0  0  0 22  0  0
    3.3109    7.4379    0.0000 H   0  0  0  0  0  0  0  0  0  0  0  0
   -0.4086   -3.6844    0.0000 C   0  0  0  0  0  0  0  0  0 20  0  0
    2.1328   -3.1443    0.0000 H   0  0  0  0  0  0  0  0  0  0  0  0
   -1.8351   -3.2209    0.0000 C   0  0  0  0  0  0  0  0  0 21  0  0
   -3.5736   -1.2902    0.0000 H   0  0  0  0  0  0  0  0  0  0  0  0
   -0.0967   -5.1517    0.0000 H   0  0  0  0  0  0  0  0  0  0  0  0
   -2.9499   -4.2246    0.0000 H   0  0  0  0  0  0  0  0  0  0  0  0
   -1.3997    2.8572    0.0000 H   0  0  0  0  0  0  0  0  0  0  0  0
  1  2  1  0
  1  3  1  0
  2  4  2  0
  5  2  1  0
  3  6  1  0
  7  3  1  0
  3  8  1  0
  4  9  1  0
  4 10  1  0
 11  5  2  0
  5 12  1  0
  6 13  1  0
  6 14  1  0
  6 15  1  0
 16  7  1  0
  7 17  1  0
  7 18  1  0
  9 19  2  0
  9 20  1  0
 19 11  1  0
 11 21  1  0
 13 22  1  0
 16 13  2  0
 23 16  1  0
 19 24  1  0
 22 25  2  0
 22 26  1  0
 27 23  2  0
 23 28  1  0
 25 27  1  0
 25 29  1  0
 27 30  1  0
  1 31  1  0
M  END
>  <SMILES>  (2) 
c1ccc(NC2Cc3ccccc3C2)cc1

>  <Molecular Weight>  (2) 
209.3

>  <Substrate_ID>  (2) 
MOL0095

>  <Substrate>  (2) 


>  <Substrate_SMILES>  (2) 
CCN(CC)CCCN(c1ccccc1)C1Cc2ccccc2C1

>  <Reaction>  (2) 
N-dealkylation_(tertiaryN-CH2-alkyl)

>  <Score>  (2) 
0.597

>  <Reaction_Score>  (2) 
0.5925

>  <Bond_Score>  (2) 
0.6014

>  <Rank>  (2) 
2

>  <Subtype>  (2) 
REACTION

>  <Subtype_Scores>  (2) 
[REACTION] SOM_score: 0.6014, Reaction_score: 0.5925, Score: 0.5970


$$$$

     RDKit          2D

 26 25  0  0  0  0  0  0  0  0999 V2000
   -1.5000    0.0000    0.0000 O   0  0  0  0  0  0  0  0  0 25  0  0
    0.0000    0.0000    0.0000 C   0  0  0  0  0  0  0  0  0  9  0  0
    1.5000    0.0000    0.0000 C   0  0  0  0  0  0  0  0  0 10  0  0
    0.0000    1.5000    0.0000 H   0  0  0  0  0  0  0  0  0  0  0  0
   -0.0000   -1.5000    0.0000 H   0  0  0  0  0  0  0  0  0  0  0  0
    3.0000    0.0000    0.0000 C   0  0  0  0  0  0  0  0  0 11  0  0
    1.5000   -1.5000    0.0000 H   0  0  0  0  0  0  0  0  0  0  0  0
    1.5000    1.5000    0.0000 H   0  0  0  0  0  0  0  0  0  0  0  0
    4.5000    0.0000    0.0000 N   0  0  0  0  0  0  0  0  0  2  0  0
    3.0000    1.5000    0.0000 H   0  0  0  0  0  0  0  0  0  0  0  0
    3.0000   -1.5000    0.0000 H   0  0  0  0  0  0  0  0  0  0  0  0
    5.2500   -1.2990    0.0000 C   0  0  0  0  0  0  0  0  0 12  0  0
    5.2500    1.2990    0.0000 C   0  0  0  0  0  0  0  0  0 14  0  0
    6.0000   -2.5981    0.0000 C   0  0  0  0  0  0  0  0  0 13  0  0
    3.9510   -2.0490    0.0000 H   0  0  0  0  0  0  0  0  0  0  0  0
    6.5490   -0.5490    0.0000 H   0  0  0  0  0  0  0  0  0  0  0  0
    6.0000    2.5981    0.0000 C   0  0  0  0  0  0  0  0  0 15  0  0
    3.9510    2.0490    0.0000 H   0  0  0  0  0  0  0  0  0  0  0  0
    6.5490    0.5490    0.0000 H   0  0  0  0  0  0  0  0  0  0  0  0
    6.7500   -3.8971    0.0000 H   0  0  0  0  0  0  0  0  0  0  0  0
    4.7010   -3.3481    0.0000 H   0  0  0  0  0  0  0  0  0  0  0  0
    7.2990   -1.8481    0.0000 H   0  0  0  0  0  0  0  0  0  0  0  0
    6.7500    3.8971    0.0000 H   0  0  0  0  0  0  0  0  0  0  0  0
    4.7010    3.3481    0.0000 H   0  0  0  0  0  0  0  0  0  0  0  0
    7.2990    1.8481    0.0000 H   0  0  0  0  0  0  0  0  0  0  0  0
   -2.2500   -1.2990    0.0000 H   0  0  0  0  0  0  0  0  0  0  0  0
  1  2  1  0
  2  3  1  0
  2  4  1  0
  2  5  1  0
  3  6  1  0
  3  7  1  0
  3  8  1  0
  6  9  1  0
  6 10  1  0
  6 11  1  0
  9 12  1  0
  9 13  1  0
 12 14  1  0
 12 15  1  0
 12 16  1  0
 13 17  1  0
 13 18  1  0
 13 19  1  0
 14 20  1  0
 14 21  1  0
 14 22  1  0
 17 23  1  0
 17 24  1  0
 17 25  1  0
  1 26  1  0
M  END
>  <SMILES>  (3) 
CCN(CC)CCCO

>  <Molecular Weight>  (3) 
131.2

>  <Substrate_ID>  (3) 
MOL0095

>  <Substrate>  (3) 


>  <Substrate_SMILES>  (3) 
CCN(CC)CCCN(c1ccccc1)C1Cc2ccccc2C1

>  <Reaction>  (3) 
N-dealkylation_(tertiaryN-CH2-alkyl)

>  <Score>  (3) 
0.597

>  <Reaction_Score>  (3) 
0.5925

>  <Bond_Score>  (3) 
0.6014

>  <Rank>  (3) 
2

>  <Subtype>  (3) 
REACTION

>  <Subtype_Scores>  (3) 
[REACTION] SOM_score: 0.6014, Reaction_score: 0.5925, Score: 0.5970


$$$$
