
     RDKit          2D

 37 39  0  0  0  0  0  0  0  0999 V2000
    3.0000   -5.5981    0.0000 C   0  0  0  0  0  0  0  0  0 15  0  0
    3.0000   -7.0981    0.0000 N   0  0  0  0  0  0  0  0  0  3  0  0
    3.0000   -4.0981    0.0000 C   0  0  0  0  0  0  0  0  0 16  0  0
    1.5000   -5.5981    0.0000 H   0  0  0  0  0  0  0  0  0  0  0  0
    4.5000   -5.5981    0.0000 H   0  0  0  0  0  0  0  0  0  0  0  0
    3.0000   -2.5981    0.0000 C   0  0  0  0  0  0  0  0  0 21  0  0
    1.5000   -4.0981    0.0000 H   0  0  0  0  0  0  0  0  0  0  0  0
    4.5000   -4.0981    0.0000 H   0  0  0  0  0  0  0  0  0  0  0  0
    3.0000   -1.0981    0.0000 C   0  0  0  0  0  0  0  0  0 17  0  0
    1.5000   -2.5981    0.0000 O   0  0  0  0  0  0  0  0  0  2  0  0
    4.5000   -2.5981    0.0000 H   0  0  0  0  0  0  0  0  0  0  0  0
    4.2135   -0.2164    0.0000 C   0  0  0  0  0  0  0  0  0 10  0  0
    1.7865   -0.2164    0.0000 S   0  0  0  0  0  0  0  0  0  1  0  0
    0.7500   -1.2990    0.0000 C   0  0  0  0  0  0  0  0  0 18  0  0
    3.7500    1.2102    0.0000 C   0  0  0  0  0  0  0  0  0  5  0  0
    5.6401   -0.6799    0.0000 H   0  0  0  0  0  0  0  0  0  0  0  0
    2.2500    1.2102    0.0000 C   0  0  0  0  0  0  0  0  0  9  0  0
    1.5000   -0.0000    0.0000 C   0  0  0  0  0  0  0  0  0 11  0  0
   -0.7500   -1.2990    0.0000 C   0  0  0  0  0  0  0  0  0 20  0  0
    4.6317    2.4237    0.0000 H   0  0  0  0  0  0  0  0  0  0  0  0
    1.5228    2.5221    0.0000 H   0  0  0  0  0  0  0  0  0  0  0  0
    0.7500    1.2990    0.0000 C   0  0  0  0  0  0  0  0  0  7  0  0
    3.0000   -0.0000    0.0000 H   0  0  0  0  0  0  0  0  0  0  0  0
   -1.5000   -2.5981    0.0000 C   0  0  0  0  0  0  0  0  0 14  0  0
   -1.5000    0.0000    0.0000 C   0  0  0  0  0  0  0  0  0 19  0  0
   -0.7500    1.2990    0.0000 C   0  0  0  0  0  0  0  0  0 13  0  0
    1.3361    2.6798    0.0000 H   0  0  0  0  0  0  0  0  0  0  0  0
   -3.0000   -2.5981    0.0000 C   0  0  0  0  0  0  0  0  0  8  0  0
   -0.7500   -3.8971    0.0000 H   0  0  0  0  0  0  0  0  0  0  0  0
   -3.0000    0.0000    0.0000 C   0  0  0  0  0  0  0  0  0 12  0  0
   -1.5000    2.5981    0.0000 H   0  0  0  0  0  0  0  0  0  0  0  0
   -3.7500   -1.2990    0.0000 C   0  0  0  0  0  0  0  0  0  6  0  0
   -3.7500   -3.8971    0.0000 H   0  0  0  0  0  0  0  0  0  0  0  0
   -3.7500    1.2990    0.0000 H   0  0  0  0  0  0  0  0  0  0  0  0
   -5.2500   -1.2990    0.0000 H   0  0  0  0  0  0  0  0  0  0  0  0
    4.2990   -7.8481    0.0000 H   0  0  0  0  0  0  0  0  0  0  0  0
    1.7010   -7.8481    0.0000 H   0  0  0  0  0  0  0  0  0  0  0  0
  1  2  1  0
  3  1  1  0
  1  4  1  0
  1  5  1  0
  6  3  1  0
  3  7  1  0
  3  8  1  0
  9  6  1  0
  6 10  1  0
  6 11  1  1
 12  9  2  0
  9 13  1  0
 10 14  1  0
 15 12  1  0
 12 16  1  0
 13 17  1  0
 14 18  2  0
 19 14  1  0
 17 15  2  0
 15 20  1  0
 17 21  1  0
 18 22  1  0
 18 23  1  0
 24 19  2  0
 19 25  1  0
 22 26  2  0
 22 27  1  0
 28 24  1  0
 24 29  1  0
 26 25  1  0
 25 30  2  0
 26 31  1  0
 32 28  2  0
 28 33  1  0
 30 32  1  0
 30 34  1  0
 32 35  1  0
  2 36  1  0
  2 37  1  0
M  END
>  <SMILES>  (1) 
NCCC(Oc1cccc2ccccc12)c1cccs1

>  <Molecular Weight>  (1) 
283.4

>  <Substrate_ID>  (1) 
MOL0053

>  <Substrate>  (1) 


>  <Substrate_SMILES>  (1) 
CNCCC(Oc1cccc2ccccc12)c1cccs1

>  <Reaction>  (1) 
N-demethylation_(R-NHCH3)

>  <Score>  (1) 
0.8045

>  <Reaction_Score>  (1) 
0.7735

>  <Bond_Score>  (1) 
0.8367

>  <Rank>  (1) 
1

>  <Subtype>  (1) 
REACTION

>  <Subtype_Scores>  (1) 
[REACTION] SOM_score: 0.8367, Reaction_score: 0.7735, Score: 0.8045


$$$$

     RDKit          2D

 41 43  0  0  0  0  0  0  0  0999 V2000
    2.2500    1.2102    0.0000 C   0  0  0  0  0  0  0  0  0  9  0  0
    1.3683    2.4237    0.0000 O   0  0  0  0  0  0  0  0  0 22  0  0
    1.7865   -0.2164    0.0000 S   0  0  0  0  0  0  0  0  0  1  0  0
    3.7500    1.2102    0.0000 C   0  0  0  0  0  0  0  0  0  5  0  0
    3.0000   -1.0981    0.0000 C   0  0  0  0  0  0  0  0  0 17  0  0
    4.2135   -0.2164    0.0000 C   0  0  0  0  0  0  0  0  0 10  0  0
    4.6317    2.4237    0.0000 H   0  0  0  0  0  0  0  0  0  0  0  0
    3.0000   -2.5981    0.0000 C   0  0  0  0  0  0  0  0  0 21  0  0
    5.6401   -0.6799    0.0000 H   0  0  0  0  0  0  0  0  0  0  0  0
    1.5000   -2.5981    0.0000 O   0  0  0  0  0  0  0  0  0  2  0  0
    3.0000   -4.0981    0.0000 C   0  0  0  0  0  0  0  0  0 16  0  0
    4.5000   -2.5981    0.0000 H   0  0  0  0  0  0  0  0  0  0  0  0
    0.7500   -1.2990    0.0000 C   0  0  0  0  0  0  0  0  0 18  0  0
    3.0000   -5.5981    0.0000 C   0  0  0  0  0  0  0  0  0 15  0  0
    4.5000   -4.0981    0.0000 H   0  0  0  0  0  0  0  0  0  0  0  0
    1.5000   -4.0981    0.0000 H   0  0  0  0  0  0  0  0  0  0  0  0
    1.5000   -0.0000    0.0000 C   0  0  0  0  0  0  0  0  0 11  0  0
   -0.7500   -1.2990    0.0000 C   0  0  0  0  0  0  0  0  0 20  0  0
    3.0000   -7.0981    0.0000 N   0  0  0  0  0  0  0  0  0  3  0  0
    1.5000   -5.5981    0.0000 H   0  0  0  0  0  0  0  0  0  0  0  0
    4.5000   -5.5981    0.0000 H   0  0  0  0  0  0  0  0  0  0  0  0
    0.7500    1.2990    0.0000 C   0  0  0  0  0  0  0  0  0  7  0  0
    3.0000   -0.0000    0.0000 H   0  0  0  0  0  0  0  0  0  0  0  0
   -1.5000   -2.5981    0.0000 C   0  0  0  0  0  0  0  0  0 14  0  0
   -1.5000    0.0000    0.0000 C   0  0  0  0  0  0  0  0  0 19  0  0
    4.2990   -7.8481    0.0000 C   0  0  0  0  0  0  0  0  0  4  0  0
    1.7010   -7.8481    0.0000 H   0  0  0  0  0  0  0  0  0  0  0  0
   -0.7500    1.2990    0.0000 C   0  0  0  0  0  0  0  0  0 13  0  0
    1.1634    2.7410    0.0000 H   0  0  0  0  0  0  0  0  0  0  0  0
   -3.0000   -2.5981    0.0000 C   0  0  0  0  0  0  0  0  0  8  0  0
   -0.7500   -3.8971    0.0000 H   0  0  0  0  0  0  0  0  0  0  0  0
   -3.0000    0.0000    0.0000 C   0  0  0  0  0  0  0  0  0 12  0  0
    5.5981   -8.5981    0.0000 H   0  0  0  0  0  0  0  0  0  0  0  0
    3.5490   -9.1471    0.0000 H   0  0  0  0  0  0  0  0  0  0  0  0
    5.0490   -6.5490    0.0000 H   0  0  0  0  0  0  0  0  0  0  0  0
   -1.5000    2.5981    0.0000 H   0  0  0  0  0  0  0  0  0  0  0  0
   -3.7500   -1.2990    0.0000 C   0  0  0  0  0  0  0  0  0  6  0  0
   -3.7500   -3.8971    0.0000 H   0  0  0  0  0  0  0  0  0  0  0  0
   -3.7500    1.2990    0.0000 H   0  0  0  0  0  0  0  0  0  0  0  0
   -5.2500   -1.2990    0.0000 H   0  0  0  0  0  0  0  0  0  0  0  0
    1.9784    3.7940    0.0000 H   0  0  0  0  0  0  0  0  0  0  0  0
  1  2  1  0
  3  1  1  0
  1  4  2  0
  5  3  1  0
  4  6  1  0
  4  7  1  0
  6  5  2  0
  5  8  1  0
  6  9  1  0
  8 10  1  0
  8 11  1  0
  8 12  1  1
 10 13  1  0
 11 14  1  0
 11 15  1  0
 11 16  1  0
 13 17  2  0
 18 13  1  0
 14 19  1  0
 14 20  1  0
 14 21  1  0
 17 22  1  0
 17 23  1  0
 24 18  2  0
 18 25  1  0
 19 26  1  0
 19 27  1  0
 22 28  2  0
 22 29  1  0
 30 24  1  0
 24 31  1  0
 28 25  1  0
 25 32  2  0
 26 33  1  0
 26 34  1  0
 26 35  1  0
 28 36  1  0
 37 30  2  0
 30 38  1  0
 32 37  1  0
 32 39  1  0
 37 40  1  0
  2 41  1  0
M  END
>  <SMILES>  (2) 
CNCCC(Oc1cccc2ccccc12)c1ccc(O)s1

>  <Molecular Weight>  (2) 
313.4

>  <Substrate_ID>  (2) 
MOL0053

>  <Substrate>  (2) 


>  <Substrate_SMILES>  (2) 
CNCCC(Oc1cccc2ccccc12)c1cccs1

>  <Reaction>  (2) 
aromatic_hydroxylation_(sulfur_containing_5ring),aromatic hydroxylation

>  <Score>  (2) 
0.3246

>  <Reaction_Score>  (2) 
0.3112

>  <Bond_Score>  (2) 
0.3385

>  <Rank>  (2) 
2

>  <Subtype>  (2) 
REACTION

>  <Subtype_Scores>  (2) 
[REACTION] SOM_score: 0.3385, Reaction_score: 0.3112, Score: 0.3246


$$$$

     RDKit          2D

 41 43  0  0  0  0  0  0  0  0999 V2000
   -1.5000   -2.5981    0.0000 C   0  0  0  0  0  0  0  0  0 18  0  0
   -0.7500   -1.2990    0.0000 C   0  0  0  0  0  0  0  0  0 20  0  0
    0.7500   -1.2990    0.0000 C   0  0  0  0  0  0  0  0  0 19  0  0
    1.5000    0.0000    0.0000 C   0  0  0  0  0  0  0  0  0 12  0  0
    0.7500    1.2990    0.0000 C   0  0  0  0  0  0  0  0  0  6  0  0
    1.5000    2.5981    0.0000 O   0  0  0  0  0  0  0  0  0 22  0  0
   -0.7500    1.2990    0.0000 C   0  0  0  0  0  0  0  0  0  8  0  0
   -1.5000   -0.0000    0.0000 C   0  0  0  0  0  0  0  0  0 14  0  0
   -3.0000   -2.5981    0.0000 O   0  0  0  0  0  0  0  0  0  2  0  0
   -0.7500   -3.8971    0.0000 C   0  0  0  0  0  0  0  0  0 11  0  0
   -3.7500   -3.8971    0.0000 C   0  0  0  0  0  0  0  0  0 21  0  0
    0.7500   -3.8971    0.0000 C   0  0  0  0  0  0  0  0  0  7  0  0
   -1.5000   -5.1962    0.0000 H   0  0  0  0  0  0  0  0  0  0  0  0
   -2.4510   -4.6471    0.0000 C   0  0  0  0  0  0  0  0  0 17  0  0
   -5.0490   -3.1471    0.0000 C   0  0  0  0  0  0  0  0  0 16  0  0
   -4.5000   -5.1962    0.0000 H   0  0  0  0  0  0  0  0  0  0  0  0
    1.5000   -2.5981    0.0000 C   0  0  0  0  0  0  0  0  0 13  0  0
    1.6528   -5.0950    0.0000 H   0  0  0  0  0  0  0  0  0  0  0  0
   -2.2942   -6.1389    0.0000 C   0  0  0  0  0  0  0  0  0 10  0  0
   -1.0806   -4.0370    0.0000 S   0  0  0  0  0  0  0  0  0  1  0  0
   -6.3481   -2.3971    0.0000 C   0  0  0  0  0  0  0  0  0 15  0  0
   -5.7990   -4.4462    0.0000 H   0  0  0  0  0  0  0  0  0  0  0  0
   -4.2990   -1.8481    0.0000 H   0  0  0  0  0  0  0  0  0  0  0  0
    3.0000   -2.5981    0.0000 H   0  0  0  0  0  0  0  0  0  0  0  0
   -0.8269   -6.4508    0.0000 C   0  0  0  0  0  0  0  0  0  5  0  0
   -3.4089   -7.1426    0.0000 H   0  0  0  0  0  0  0  0  0  0  0  0
   -0.0769   -5.1517    0.0000 C   0  0  0  0  0  0  0  0  0  9  0  0
   -7.6471   -1.6471    0.0000 N   0  0  0  0  0  0  0  0  0  3  0  0
   -5.5981   -1.0981    0.0000 H   0  0  0  0  0  0  0  0  0  0  0  0
   -7.0981   -3.6962    0.0000 H   0  0  0  0  0  0  0  0  0  0  0  0
   -0.2168   -7.8211    0.0000 H   0  0  0  0  0  0  0  0  0  0  0  0
    1.4228   -5.1779    0.0000 H   0  0  0  0  0  0  0  0  0  0  0  0
   -8.9462   -2.3971    0.0000 C   0  0  0  0  0  0  0  0  0  4  0  0
   -7.6471   -0.1471    0.0000 H   0  0  0  0  0  0  0  0  0  0  0  0
  -10.2452   -3.1471    0.0000 H   0  0  0  0  0  0  0  0  0  0  0  0
   -9.6962   -1.0981    0.0000 H   0  0  0  0  0  0  0  0  0  0  0  0
   -8.1962   -3.6962    0.0000 H   0  0  0  0  0  0  0  0  0  0  0  0
    3.0000   -0.0000    0.0000 H   0  0  0  0  0  0  0  0  0  0  0  0
   -1.5000    2.5981    0.0000 H   0  0  0  0  0  0  0  0  0  0  0  0
   -3.0000    0.0000    0.0000 H   0  0  0  0  0  0  0  0  0  0  0  0
    0.7500    3.8971    0.0000 H   0  0  0  0  0  0  0  0  0  0  0  0
  1  2  1  0
  2  3  1  0
  3  4  2  0
  4  5  1  0
  5  6  1  0
  5  7  2  0
  7  8  1  0
  8  2  2  0
  9  1  1  0
  1 10  2  0
 11  9  1  0
 10 12  1  0
 10 13  1  0
 14 11  1  0
 11 15  1  0
 11 16  1  1
 12 17  2  0
 12 18  1  0
 19 14  2  0
 14 20  1  0
 15 21  1  0
 15 22  1  0
 15 23  1  0
 17  3  1  0
 17 24  1  0
 25 19  1  0
 19 26  1  0
 20 27  1  0
 21 28  1  0
 21 29  1  0
 21 30  1  0
 27 25  2  0
 25 31  1  0
 27 32  1  0
 28 33  1  0
 28 34  1  0
 33 35  1  0
 33 36  1  0
 33 37  1  0
  4 38  1  0
  7 39  1  0
  8 40  1  0
  6 41  1  0
M  END
>  <SMILES>  (3) 
CNCCC(Oc1cccc2cc(O)ccc12)c1cccs1

>  <Molecular Weight>  (3) 
313.4

>  <Substrate_ID>  (3) 
MOL0053

>  <Substrate>  (3) 


>  <Substrate_SMILES>  (3) 
CNCCC(Oc1cccc2ccccc12)c1cccs1

>  <Reaction>  (3) 
aromatic_hydroxylation_(para_to_carbon),aromatic hydroxylation

>  <Score>  (3) 
0.3192

>  <Reaction_Score>  (3) 
0.3193

>  <Bond_Score>  (3) 
0.3191

>  <Rank>  (3) 
3

>  <Subtype>  (3) 
REACTION

>  <Subtype_Scores>  (3) 
[REACTION] SOM_score: 0.3191, Reaction_score: 0.3193, Score: 0.3192


$$$$

     RDKit          2D

 41 43  0  0  0  0  0  0  0  0999 V2000
    1.5000   -0.0000    0.0000 C   0  0  0  0  0  0  0  0  0 13  0  0
    0.7500   -1.2990    0.0000 C   0  0  0  0  0  0  0  0  0 19  0  0
   -0.7500   -1.2990    0.0000 C   0  0  0  0  0  0  0  0  0 20  0  0
   -1.5000   -2.5981    0.0000 C   0  0  0  0  0  0  0  0  0 14  0  0
   -0.7500   -3.8971    0.0000 C   0  0  0  0  0  0  0  0  0  8  0  0
   -1.5000   -5.1962    0.0000 O   0  0  0  0  0  0  0  0  0 22  0  0
    0.7500   -3.8971    0.0000 C   0  0  0  0  0  0  0  0  0  6  0  0
    1.5000   -2.5981    0.0000 C   0  0  0  0  0  0  0  0  0 12  0  0
    0.7500    1.2990    0.0000 C   0  0  0  0  0  0  0  0  0  7  0  0
    3.0000   -0.0000    0.0000 H   0  0  0  0  0  0  0  0  0  0  0  0
   -0.7500    1.2990    0.0000 C   0  0  0  0  0  0  0  0  0 11  0  0
    1.6528    2.4970    0.0000 H   0  0  0  0  0  0  0  0  0  0  0  0
   -1.5000   -0.0000    0.0000 C   0  0  0  0  0  0  0  0  0 18  0  0
   -1.5000    2.5981    0.0000 H   0  0  0  0  0  0  0  0  0  0  0  0
   -3.0000   -0.0000    0.0000 O   0  0  0  0  0  0  0  0  0  2  0  0
   -3.7500    1.2990    0.0000 C   0  0  0  0  0  0  0  0  0 21  0  0
   -2.4510    2.0490    0.0000 C   0  0  0  0  0  0  0  0  0 17  0  0
   -5.0490    0.5490    0.0000 C   0  0  0  0  0  0  0  0  0 16  0  0
   -4.5000    2.5981    0.0000 H   0  0  0  0  0  0  0  0  0  0  0  0
   -2.2942    3.5408    0.0000 C   0  0  0  0  0  0  0  0  0 10  0  0
   -1.0806    1.4389    0.0000 S   0  0  0  0  0  0  0  0  0  1  0  0
   -6.3481   -0.2010    0.0000 C   0  0  0  0  0  0  0  0  0 15  0  0
   -5.7990    1.8481    0.0000 H   0  0  0  0  0  0  0  0  0  0  0  0
   -4.2990   -0.7500    0.0000 H   0  0  0  0  0  0  0  0  0  0  0  0
   -0.8269    3.8527    0.0000 C   0  0  0  0  0  0  0  0  0  5  0  0
   -3.4089    4.5445    0.0000 H   0  0  0  0  0  0  0  0  0  0  0  0
   -0.0769    2.5537    0.0000 C   0  0  0  0  0  0  0  0  0  9  0  0
   -7.6471   -0.9510    0.0000 N   0  0  0  0  0  0  0  0  0  3  0  0
   -5.5981   -1.5000    0.0000 H   0  0  0  0  0  0  0  0  0  0  0  0
   -7.0981    1.0981    0.0000 H   0  0  0  0  0  0  0  0  0  0  0  0
   -0.2168    5.2230    0.0000 H   0  0  0  0  0  0  0  0  0  0  0  0
    1.4228    2.5799    0.0000 H   0  0  0  0  0  0  0  0  0  0  0  0
   -8.9462   -0.2010    0.0000 C   0  0  0  0  0  0  0  0  0  4  0  0
   -7.6471   -2.4510    0.0000 H   0  0  0  0  0  0  0  0  0  0  0  0
  -10.2452    0.5490    0.0000 H   0  0  0  0  0  0  0  0  0  0  0  0
   -9.6962   -1.5000    0.0000 H   0  0  0  0  0  0  0  0  0  0  0  0
   -8.1962    1.0981    0.0000 H   0  0  0  0  0  0  0  0  0  0  0  0
   -3.0000   -2.5981    0.0000 H   0  0  0  0  0  0  0  0  0  0  0  0
    1.5000   -5.1962    0.0000 H   0  0  0  0  0  0  0  0  0  0  0  0
    3.0000   -2.5981    0.0000 H   0  0  0  0  0  0  0  0  0  0  0  0
   -0.7500   -6.4952    0.0000 H   0  0  0  0  0  0  0  0  0  0  0  0
  1  2  2  0
  2  3  1  0
  3  4  1  0
  4  5  2  0
  5  6  1  0
  5  7  1  0
  7  8  2  0
  8  2  1  0
  9  1  1  0
  1 10  1  0
 11  9  2  0
  9 12  1  0
 13 11  1  0
 11 14  1  0
 15 13  1  0
  3 13  2  0
 16 15  1  0
 17 16  1  0
 16 18  1  0
 16 19  1  6
 20 17  2  0
 17 21  1  0
 18 22  1  0
 18 23  1  0
 18 24  1  0
 25 20  1  0
 20 26  1  0
 21 27  1  0
 22 28  1  0
 22 29  1  0
 22 30  1  0
 27 25  2  0
 25 31  1  0
 27 32  1  0
 28 33  1  0
 28 34  1  0
 33 35  1  0
 33 36  1  0
 33 37  1  0
  4 38  1  0
  7 39  1  0
  8 40  1  0
  6 41  1  0
M  END
>  <SMILES>  (4) 
CNCCC(Oc1cccc2ccc(O)cc12)c1cccs1

>  <Molecular Weight>  (4) 
313.4

>  <Substrate_ID>  (4) 
MOL0053

>  <Substrate>  (4) 


>  <Substrate_SMILES>  (4) 
CNCCC(Oc1cccc2ccccc12)c1cccs1

>  <Reaction>  (4) 
aromatic_hydroxylation_(para_to_carbon),aromatic hydroxylation

>  <Score>  (4) 
0.3141

>  <Reaction_Score>  (4) 
0.3154

>  <Bond_Score>  (4) 
0.3128

>  <Rank>  (4) 
4

>  <Subtype>  (4) 
REACTION

>  <Subtype_Scores>  (4) 
[REACTION] SOM_score: 0.3128, Reaction_score: 0.3154, Score: 0.3141


$$$$

     RDKit          2D

 41 43  0  0  0  0  0  0  0  0999 V2000
    1.5000   -0.0000    0.0000 C   0  0  0  0  0  0  0  0  0 12  0  0
    3.0000   -0.0000    0.0000 O   0  0  0  0  0  0  0  0  0 22  0  0
    3.7500    1.2990    0.0000 H   0  0  0  0  0  0  0  0  0  0  0  0
    0.7500   -1.2990    0.0000 C   0  0  0  0  0  0  0  0  0 19  0  0
    0.7500    1.2990    0.0000 C   0  0  0  0  0  0  0  0  0  6  0  0
    1.5000   -2.5981    0.0000 C   0  0  0  0  0  0  0  0  0 13  0  0
   -0.7500   -1.2990    0.0000 C   0  0  0  0  0  0  0  0  0 20  0  0
   -0.7500    1.2990    0.0000 C   0  0  0  0  0  0  0  0  0  8  0  0
    1.5000    2.5981    0.0000 H   0  0  0  0  0  0  0  0  0  0  0  0
    0.7500   -3.8971    0.0000 C   0  0  0  0  0  0  0  0  0  7  0  0
    3.0000   -2.5981    0.0000 H   0  0  0  0  0  0  0  0  0  0  0  0
   -1.5000   -0.0000    0.0000 C   0  0  0  0  0  0  0  0  0 14  0  0
   -1.5000   -2.5981    0.0000 C   0  0  0  0  0  0  0  0  0 18  0  0
   -1.5000    2.5981    0.0000 H   0  0  0  0  0  0  0  0  0  0  0  0
   -0.7500   -3.8971    0.0000 C   0  0  0  0  0  0  0  0  0 11  0  0
    1.6528   -5.0950    0.0000 H   0  0  0  0  0  0  0  0  0  0  0  0
   -3.0000   -0.0000    0.0000 H   0  0  0  0  0  0  0  0  0  0  0  0
   -3.0000   -2.5981    0.0000 O   0  0  0  0  0  0  0  0  0  2  0  0
   -1.5000   -5.1962    0.0000 H   0  0  0  0  0  0  0  0  0  0  0  0
   -3.7500   -3.8971    0.0000 C   0  0  0  0  0  0  0  0  0 21  0  0
   -2.4510   -4.6471    0.0000 C   0  0  0  0  0  0  0  0  0 17  0  0
   -5.0490   -3.1471    0.0000 C   0  0  0  0  0  0  0  0  0 16  0  0
   -4.5000   -5.1962    0.0000 H   0  0  0  0  0  0  0  0  0  0  0  0
   -2.2942   -6.1389    0.0000 C   0  0  0  0  0  0  0  0  0 10  0  0
   -1.0806   -4.0370    0.0000 S   0  0  0  0  0  0  0  0  0  1  0  0
   -6.3481   -2.3971    0.0000 C   0  0  0  0  0  0  0  0  0 15  0  0
   -5.7990   -4.4462    0.0000 H   0  0  0  0  0  0  0  0  0  0  0  0
   -4.2990   -1.8481    0.0000 H   0  0  0  0  0  0  0  0  0  0  0  0
   -0.8269   -6.4508    0.0000 C   0  0  0  0  0  0  0  0  0  5  0  0
   -3.4089   -7.1426    0.0000 H   0  0  0  0  0  0  0  0  0  0  0  0
   -0.0769   -5.1517    0.0000 C   0  0  0  0  0  0  0  0  0  9  0  0
   -7.6471   -1.6471    0.0000 N   0  0  0  0  0  0  0  0  0  3  0  0
   -5.5981   -1.0981    0.0000 H   0  0  0  0  0  0  0  0  0  0  0  0
   -7.0981   -3.6962    0.0000 H   0  0  0  0  0  0  0  0  0  0  0  0
   -0.2168   -7.8211    0.0000 H   0  0  0  0  0  0  0  0  0  0  0  0
    1.4228   -5.1779    0.0000 H   0  0  0  0  0  0  0  0  0  0  0  0
   -8.9462   -2.3971    0.0000 C   0  0  0  0  0  0  0  0  0  4  0  0
   -7.6471   -0.1471    0.0000 H   0  0  0  0  0  0  0  0  0  0  0  0
  -10.2452   -3.1471    0.0000 H   0  0  0  0  0  0  0  0  0  0  0  0
   -9.6962   -1.0981    0.0000 H   0  0  0  0  0  0  0  0  0  0  0  0
   -8.1962   -3.6962    0.0000 H   0  0  0  0  0  0  0  0  0  0  0  0
  1  2  1  0
  2  3  1  0
  4  1  2  0
  1  5  1  0
  6  4  1  0
  7  4  1  0
  5  8  2  0
  5  9  1  0
 10  6  2  0
  6 11  1  0
 12  7  2  0
  7 13  1  0
  8 12  1  0
  8 14  1  0
 15 10  1  0
 10 16  1  0
 12 17  1  0
 18 13  1  0
 13 15  2  0
 15 19  1  0
 20 18  1  0
 21 20  1  0
 20 22  1  0
 20 23  1  1
 24 21  2  0
 21 25  1  0
 22 26  1  0
 22 27  1  0
 22 28  1  0
 29 24  1  0
 24 30  1  0
 25 31  1  0
 26 32  1  0
 26 33  1  0
 26 34  1  0
 31 29  2  0
 29 35  1  0
 31 36  1  0
 32 37  1  0
 32 38  1  0
 37 39  1  0
 37 40  1  0
 37 41  1  0
M  END
>  <SMILES>  (5) 
CNCCC(Oc1cccc2c(O)cccc12)c1cccs1

>  <Molecular Weight>  (5) 
313.4

>  <Substrate_ID>  (5) 
MOL0053

>  <Substrate>  (5) 


>  <Substrate_SMILES>  (5) 
CNCCC(Oc1cccc2ccccc12)c1cccs1

>  <Reaction>  (5) 
aromatic hydroxylation

>  <Score>  (5) 
0.2577

>  <Reaction_Score>  (5) 
0.2463

>  <Bond_Score>  (5) 
0.2695

>  <Rank>  (5) 
5

>  <Subtype>  (5) 
REACTION

>  <Subtype_Scores>  (5) 
[REACTION] SOM_score: 0.2695, Reaction_score: 0.2463, Score: 0.2577


$$$$

     RDKit          2D

 41 43  0  0  0  0  0  0  0  0999 V2000
   -3.0000   -0.0000    0.0000 O   0  0  0  0  0  0  0  0  0  2  0  0
   -1.5000   -0.0000    0.0000 C   0  0  0  0  0  0  0  0  0 18  0  0
   -0.7500   -1.2990    0.0000 C   0  0  0  0  0  0  0  0  0 20  0  0
    0.7500   -1.2990    0.0000 C   0  0  0  0  0  0  0  0  0 19  0  0
    1.5000   -0.0000    0.0000 C   0  0  0  0  0  0  0  0  0 13  0  0
    3.0000   -0.0000    0.0000 O   0  0  0  0  0  0  0  0  0 22  0  0
    0.7500    1.2990    0.0000 C   0  0  0  0  0  0  0  0  0  7  0  0
   -0.7500    1.2990    0.0000 C   0  0  0  0  0  0  0  0  0 11  0  0
   -3.7500    1.2990    0.0000 C   0  0  0  0  0  0  0  0  0 21  0  0
   -2.4510    2.0490    0.0000 C   0  0  0  0  0  0  0  0  0 17  0  0
   -5.0490    0.5490    0.0000 C   0  0  0  0  0  0  0  0  0 16  0  0
   -4.5000    2.5981    0.0000 H   0  0  0  0  0  0  0  0  0  0  0  0
   -2.2942    3.5408    0.0000 C   0  0  0  0  0  0  0  0  0 10  0  0
   -1.0806    1.4389    0.0000 S   0  0  0  0  0  0  0  0  0  1  0  0
   -6.3481   -0.2010    0.0000 C   0  0  0  0  0  0  0  0  0 15  0  0
   -5.7990    1.8481    0.0000 H   0  0  0  0  0  0  0  0  0  0  0  0
   -4.2990   -0.7500    0.0000 H   0  0  0  0  0  0  0  0  0  0  0  0
   -0.8269    3.8527    0.0000 C   0  0  0  0  0  0  0  0  0  5  0  0
   -3.4089    4.5445    0.0000 H   0  0  0  0  0  0  0  0  0  0  0  0
   -0.0769    2.5537    0.0000 C   0  0  0  0  0  0  0  0  0  9  0  0
   -7.6471   -0.9510    0.0000 N   0  0  0  0  0  0  0  0  0  3  0  0
   -5.5981   -1.5000    0.0000 H   0  0  0  0  0  0  0  0  0  0  0  0
   -7.0981    1.0981    0.0000 H   0  0  0  0  0  0  0  0  0  0  0  0
   -0.2168    5.2230    0.0000 H   0  0  0  0  0  0  0  0  0  0  0  0
    1.4228    2.5799    0.0000 H   0  0  0  0  0  0  0  0  0  0  0  0
   -8.9462   -0.2010    0.0000 C   0  0  0  0  0  0  0  0  0  4  0  0
   -7.6471   -2.4510    0.0000 H   0  0  0  0  0  0  0  0  0  0  0  0
  -10.2452    0.5490    0.0000 H   0  0  0  0  0  0  0  0  0  0  0  0
   -9.6962   -1.5000    0.0000 H   0  0  0  0  0  0  0  0  0  0  0  0
   -8.1962    1.0981    0.0000 H   0  0  0  0  0  0  0  0  0  0  0  0
   -1.5000   -2.5981    0.0000 C   0  0  0  0  0  0  0  0  0 14  0  0
   -0.7500   -3.8971    0.0000 C   0  0  0  0  0  0  0  0  0  8  0  0
   -3.0000   -2.5981    0.0000 H   0  0  0  0  0  0  0  0  0  0  0  0
    0.7500   -3.8971    0.0000 C   0  0  0  0  0  0  0  0  0  6  0  0
   -1.5000   -5.1962    0.0000 H   0  0  0  0  0  0  0  0  0  0  0  0
    1.5000   -2.5981    0.0000 C   0  0  0  0  0  0  0  0  0 12  0  0
    1.5000   -5.1962    0.0000 H   0  0  0  0  0  0  0  0  0  0  0  0
    3.0000   -2.5981    0.0000 H   0  0  0  0  0  0  0  0  0  0  0  0
    1.6528    2.4970    0.0000 H   0  0  0  0  0  0  0  0  0  0  0  0
   -1.5000    2.5981    0.0000 H   0  0  0  0  0  0  0  0  0  0  0  0
    3.7500    1.2990    0.0000 H   0  0  0  0  0  0  0  0  0  0  0  0
  1  2  1  0
  2  3  2  0
  3  4  1  0
  4  5  2  0
  5  6  1  0
  5  7  1  0
  7  8  2  0
  8  2  1  0
  9  1  1  0
 10  9  1  0
  9 11  1  0
  9 12  1  6
 13 10  2  0
 10 14  1  0
 11 15  1  0
 11 16  1  0
 11 17  1  0
 18 13  1  0
 13 19  1  0
 14 20  1  0
 15 21  1  0
 15 22  1  0
 15 23  1  0
 20 18  2  0
 18 24  1  0
 20 25  1  0
 21 26  1  0
 21 27  1  0
 26 28  1  0
 26 29  1  0
 26 30  1  0
 31  3  1  0
 32 31  2  0
 31 33  1  0
 34 32  1  0
 32 35  1  0
 36 34  2  0
 34 37  1  0
  4 36  1  0
 36 38  1  0
  7 39  1  0
  8 40  1  0
  6 41  1  0
M  END
>  <SMILES>  (6) 
CNCCC(Oc1ccc(O)c2ccccc12)c1cccs1

>  <Molecular Weight>  (6) 
313.4

>  <Substrate_ID>  (6) 
MOL0053

>  <Substrate>  (6) 


>  <Substrate_SMILES>  (6) 
CNCCC(Oc1cccc2ccccc12)c1cccs1

>  <Reaction>  (6) 
aromatic_hydroxylation_(para_to_oxygen),aromatic hydroxylation

>  <Score>  (6) 
0.2559

>  <Reaction_Score>  (6) 
0.2464

>  <Bond_Score>  (6) 
0.2659

>  <Rank>  (6) 
6

>  <Subtype>  (6) 
REACTION

>  <Subtype_Scores>  (6) 
[REACTION] SOM_score: 0.2659, Reaction_score: 0.2464, Score: 0.2559


$$$$
