
     RDKit          2D

 55 57  0  0  0  0  0  0  0  0999 V2000
    8.5663   -8.0678    0.0000 C   0  0  0  0  0  0  0  0  0 11  0  0
    9.7799   -8.9494    0.0000 O   0  0  0  0  0  0  0  0  0 31  0  0
    8.5663   -6.5678    0.0000 S   0  0  0  0  0  0  0  0  0  1  0  0
    7.1398   -8.5313    0.0000 C   0  0  0  0  0  0  0  0  0 10  0  0
    7.1398   -6.1042    0.0000 C   0  0  0  0  0  0  0  0  0 28  0  0
    6.2581   -7.3178    0.0000 C   0  0  0  0  0  0  0  0  0 16  0  0
    6.6762   -9.9579    0.0000 H   0  0  0  0  0  0  0  0  0  0  0  0
    6.6762   -4.6776    0.0000 C   0  0  0  0  0  0  0  0  0 20  0  0
    4.7581   -7.3178    0.0000 H   0  0  0  0  0  0  0  0  0  0  0  0
    6.2127   -3.2511    0.0000 C   0  0  0  0  0  0  0  0  0 25  0  0
    5.2496   -5.1412    0.0000 H   0  0  0  0  0  0  0  0  0  0  0  0
    8.1028   -4.2141    0.0000 H   0  0  0  0  0  0  0  0  0  0  0  0
    4.7455   -2.9392    0.0000 C   0  0  0  0  0  0  0  0  0  9  0  0
    7.2164   -2.1363    0.0000 C   0  0  0  0  0  0  0  0  0 23  0  0
    3.7418   -4.0539    0.0000 C   0  0  0  0  0  0  0  0  0 29  0  0
    4.2820   -1.5126    0.0000 H   0  0  0  0  0  0  0  0  0  0  0  0
    8.6836   -2.4482    0.0000 O   0  0  0  0  0  0  0  0  0  2  0  0
    6.7529   -0.7098    0.0000 O   0  0  0  0  0  0  0  0  0  4  0  0
    2.2500   -3.8971    0.0000 N   0  0  0  0  0  0  0  0  0  7  0  0
    4.0537   -5.5211    0.0000 C   0  0  0  0  0  0  0  0  0 17  0  0
    7.7566    0.4050    0.0000 H   0  0  0  0  0  0  0  0  0  0  0  0
    1.5000   -2.5981    0.0000 C   0  0  0  0  0  0  0  0  0 22  0  0
    1.6399   -5.2674    0.0000 C   0  0  0  0  0  0  0  0  0 30  0  0
    2.7546   -6.2711    0.0000 N   0  0  0  0  0  0  0  0  0  6  0  0
    5.4240   -6.1312    0.0000 H   0  0  0  0  0  0  0  0  0  0  0  0
    0.7500   -1.2990    0.0000 C   0  0  0  0  0  0  0  0  0 26  0  0
    0.1192   -3.1841    0.0000 H   0  0  0  0  0  0  0  0  0  0  0  0
    2.7990   -1.8481    0.0000 H   0  0  0  0  0  0  0  0  0  0  0  0
    0.1727   -5.5793    0.0000 C   0  0  0  0  0  0  0  0  0 21  0  0
   -0.7500   -1.2990    0.0000 C   0  0  0  0  0  0  0  0  0 12  0  0
    1.5000   -0.0000    0.0000 C   0  0  0  0  0  0  0  0  0 13  0  0
   -1.2945   -5.8912    0.0000 C   0  0  0  0  0  0  0  0  0 19  0  0
   -0.3157   -4.1610    0.0000 H   0  0  0  0  0  0  0  0  0  0  0  0
    0.4845   -7.0465    0.0000 H   0  0  0  0  0  0  0  0  0  0  0  0
   -1.5000    0.0000    0.0000 C   0  0  0  0  0  0  0  0  0 14  0  0
   -1.5000   -2.5981    0.0000 H   0  0  0  0  0  0  0  0  0  0  0  0
    0.7500    1.2990    0.0000 C   0  0  0  0  0  0  0  0  0 15  0  0
    3.0000   -0.0000    0.0000 H   0  0  0  0  0  0  0  0  0  0  0  0
   -2.7618   -6.2030    0.0000 C   0  0  0  0  0  0  0  0  0 18  0  0
   -1.6064   -4.4239    0.0000 H   0  0  0  0  0  0  0  0  0  0  0  0
   -0.9827   -7.3584    0.0000 H   0  0  0  0  0  0  0  0  0  0  0  0
   -0.7500    1.2990    0.0000 C   0  0  0  0  0  0  0  0  0 27  0  0
   -3.0000    0.0000    0.0000 H   0  0  0  0  0  0  0  0  0  0  0  0
    1.5000    2.5981    0.0000 H   0  0  0  0  0  0  0  0  0  0  0  0
   -4.2290   -6.5149    0.0000 C   0  0  0  0  0  0  0  0  0  8  0  0
   -2.4499   -7.6703    0.0000 H   0  0  0  0  0  0  0  0  0  0  0  0
   -3.0736   -4.7358    0.0000 H   0  0  0  0  0  0  0  0  0  0  0  0
   -1.5000    2.5981    0.0000 C   0  0  0  0  0  0  0  0  0 24  0  0
   -4.5409   -5.0477    0.0000 H   0  0  0  0  0  0  0  0  0  0  0  0
   -3.9171   -7.9821    0.0000 H   0  0  0  0  0  0  0  0  0  0  0  0
   -5.6962   -6.8268    0.0000 H   0  0  0  0  0  0  0  0  0  0  0  0
   -3.0000    2.5981    0.0000 O   0  0  0  0  0  0  0  0  0  3  0  0
   -0.7500    3.8971    0.0000 O   0  0  0  0  0  0  0  0  0  5  0  0
   -1.5000    5.1962    0.0000 H   0  0  0  0  0  0  0  0  0  0  0  0
    9.6231  -10.4412    0.0000 H   0  0  0  0  0  0  0  0  0  0  0  0
  1  2  1  0
  3  1  1  0
  1  4  2  0
  5  3  1  0
  4  6  1  0
  4  7  1  0
  6  5  2  0
  5  8  1  0
  6  9  1  0
  8 10  1  0
  8 11  1  0
  8 12  1  0
 10 13  2  0
 10 14  1  0
 13 15  1  0
 13 16  1  0
 14 17  2  0
 14 18  1  0
 15 19  1  0
 20 15  2  0
 18 21  1  0
 19 22  1  0
 19 23  1  0
 24 20  1  0
 20 25  1  0
 22 26  1  0
 22 27  1  0
 22 28  1  0
 23 29  1  0
 23 24  2  0
 26 30  2  0
 31 26  1  0
 29 32  1  0
 29 33  1  0
 29 34  1  0
 30 35  1  0
 30 36  1  0
 37 31  2  0
 31 38  1  0
 32 39  1  0
 32 40  1  0
 32 41  1  0
 35 42  2  0
 35 43  1  0
 42 37  1  0
 37 44  1  0
 39 45  1  0
 39 46  1  0
 39 47  1  0
 42 48  1  0
 45 49  1  0
 45 50  1  0
 45 51  1  0
 48 52  2  0
 48 53  1  0
 53 54  1  0
  2 55  1  0
M  END
>  <SMILES>  (1) 
CCCCc1ncc(C=C(Cc2ccc(O)s2)C(=O)O)n1Cc1ccc(C(=O)O)cc1

>  <Molecular Weight>  (1) 
440.5

>  <Substrate_ID>  (1) 
MOL0012

>  <Substrate>  (1) 


>  <Substrate_SMILES>  (1) 
CCCCc1ncc(C=C(Cc2cccs2)C(=O)O)n1Cc1ccc(C(=O)O)cc1

>  <Reaction>  (1) 
aromatic_hydroxylation_(sulfur_containing_5ring),aromatic hydroxylation

>  <Score>  (1) 
0.2639

>  <Reaction_Score>  (1) 
0.266

>  <Bond_Score>  (1) 
0.2618

>  <Rank>  (1) 
1

>  <Subtype>  (1) 
REACTION

>  <Subtype_Scores>  (1) 
[REACTION] SOM_score: 0.2618, Reaction_score: 0.2660, Score: 0.2639


$$$$
