
     RDKit          2D

 49 51  0  0  0  0  0  0  0  0999 V2000
    5.2500   -1.2990    0.0000 C   0  0  0  0  0  0  0  0  0 32  0  0
    6.7500   -1.2990    0.0000 O   0  0  0  0  0  0  0  0  0 33  0  0
    7.5000    0.0000    0.0000 H   0  0  0  0  0  0  0  0  0  0  0  0
    3.7500   -1.2990    0.0000 N   0  0  0  0  0  0  0  0  0 10  0  0
    5.2500   -2.7990    0.0000 H   0  0  0  0  0  0  0  0  0  0  0  0
    5.2500    0.2010    0.0000 H   0  0  0  0  0  0  0  0  0  0  0  0
    3.0000    0.0000    0.0000 C   0  0  0  0  0  0  0  0  0 30  0  0
    3.0000   -2.5981    0.0000 H   0  0  0  0  0  0  0  0  0  0  0  0
    1.5000    0.0000    0.0000 C   0  0  0  0  0  0  0  0  0 26  0  0
    3.7500    1.2990    0.0000 O   0  0  0  0  0  0  0  0  0  7  0  0
    0.7500   -1.2990    0.0000 C   0  0  0  0  0  0  0  0  0 23  0  0
    0.7500    1.2990    0.0000 C   0  0  0  0  0  0  0  0  0 24  0  0
   -0.7500   -1.2990    0.0000 C   0  0  0  0  0  0  0  0  0 19  0  0
    1.5000   -2.5981    0.0000 F   0  0  0  0  0  0  0  0  0  2  0  0
   -0.7500    1.2990    0.0000 C   0  0  0  0  0  0  0  0  0 20  0  0
    1.5000    2.5981    0.0000 H   0  0  0  0  0  0  0  0  0  0  0  0
   -1.5000    0.0000    0.0000 C   0  0  0  0  0  0  0  0  0 17  0  0
   -1.5000   -2.5981    0.0000 H   0  0  0  0  0  0  0  0  0  0  0  0
   -1.0615    2.0328    0.0000 H   0  0  0  0  0  0  0  0  0  0  0  0
   -3.0000    0.0000    0.0000 N   0  0  0  0  0  0  0  0  0  8  0  0
   -3.8817   -1.2135    0.0000 C   0  0  0  0  0  0  0  0  0 16  0  0
   -3.8817    1.2135    0.0000 C   0  0  0  0  0  0  0  0  0 12  0  0
   -3.4182   -2.6401    0.0000 S   0  0  0  0  0  0  0  0  0  1  0  0
   -5.3083   -0.7500    0.0000 N   0  0  0  0  0  0  0  0  0  9  0  0
   -4.4918    2.5838    0.0000 C   0  0  0  0  0  0  0  0  0 14  0  0
   -2.5826    1.9635    0.0000 C   0  0  0  0  0  0  0  0  0 15  0  0
   -5.3083    0.7500    0.0000 C   0  0  0  0  0  0  0  0  0 13  0  0
   -6.5218   -1.6317    0.0000 C   0  0  0  0  0  0  0  0  0 18  0  0
   -5.1019    3.9542    0.0000 H   0  0  0  0  0  0  0  0  0  0  0  0
   -3.2061    3.3564    0.0000 H   0  0  0  0  0  0  0  0  0  0  0  0
   -5.9263    2.1453    0.0000 H   0  0  0  0  0  0  0  0  0  0  0  0
   -1.9460    2.4433    0.0000 H   0  0  0  0  0  0  0  0  0  0  0  0
   -3.1687    3.3443    0.0000 H   0  0  0  0  0  0  0  0  0  0  0  0
   -1.5406    0.8846    0.0000 H   0  0  0  0  0  0  0  0  0  0  0  0
   -6.6202    1.4772    0.0000 O   0  0  0  0  0  0  0  0  0  6  0  0
   -7.8921   -1.0216    0.0000 C   0  0  0  0  0  0  0  0  0 21  0  0
   -6.3650   -3.1235    0.0000 C   0  0  0  0  0  0  0  0  0 22  0  0
   -9.1056   -1.9033    0.0000 C   0  0  0  0  0  0  0  0  0 25  0  0
   -8.0489    0.4702    0.0000 H   0  0  0  0  0  0  0  0  0  0  0  0
   -7.5785   -4.0051    0.0000 C   0  0  0  0  0  0  0  0  0 27  0  0
   -4.9947   -3.7336    0.0000 H   0  0  0  0  0  0  0  0  0  0  0  0
  -10.4760   -1.2931    0.0000 C   0  0  0  0  0  0  0  0  0 29  0  0
   -8.9488   -3.3950    0.0000 C   0  0  0  0  0  0  0  0  0 28  0  0
   -7.4217   -5.4969    0.0000 H   0  0  0  0  0  0  0  0  0  0  0  0
  -11.8463   -0.6830    0.0000 F   0  0  0  0  0  0  0  0  0  3  0  0
  -11.0861   -2.6635    0.0000 F   0  0  0  0  0  0  0  0  0  4  0  0
   -9.8658    0.0772    0.0000 F   0  0  0  0  0  0  0  0  0  5  0  0
  -10.1624   -4.2767    0.0000 C   0  0  0  0  0  0  0  0  0 31  0  0
  -11.3759   -5.1584    0.0000 N   0  0  0  0  0  0  0  0  0 11  0  0
  1  2  1  0
  2  3  1  0
  4  1  1  0
  1  5  1  0
  1  6  1  0
  7  4  1  0
  4  8  1  0
  9  7  1  0
  7 10  2  0
 11  9  2  0
  9 12  1  0
 13 11  1  0
 11 14  1  0
 12 15  2  0
 12 16  1  0
 17 13  2  0
 13 18  1  0
 15 17  1  0
 15 19  1  0
 20 17  1  0
 21 20  1  0
 20 22  1  0
 23 21  2  0
 24 21  1  0
 22 25  1  1
 22 26  1  0
 22 27  1  0
 27 24  1  0
 24 28  1  0
 25 29  1  0
 25 30  1  0
 25 31  1  0
 26 32  1  0
 26 33  1  0
 26 34  1  0
 27 35  2  0
 28 36  2  0
 37 28  1  0
 36 38  1  0
 36 39  1  0
 40 37  2  0
 37 41  1  0
 38 42  1  0
 38 43  2  0
 43 40  1  0
 40 44  1  0
 42 45  1  6
 42 46  1  0
 42 47  1  0
 43 48  1  0
 48 49  3  0
M  END
>  <SMILES>  (1) 
CC1(C)C(=O)N(c2ccc(C#N)c(C(F)(F)F)c2)C(=S)N1c1ccc(C(=O)NCO)c(F)c1

>  <Molecular Weight>  (1) 
480.4

>  <Substrate_ID>  (1) 
MOL0089

>  <Substrate>  (1) 


>  <Substrate_SMILES>  (1) 
CNC(=O)c1ccc(N2C(=S)N(c3ccc(C#N)c(C(F)(F)F)c3)C(=O)C2(C)C)cc1F

>  <Reaction>  (1) 
aliphatic hydroxylation

>  <Score>  (1) 
0.3859

>  <Reaction_Score>  (1) 
0.2881

>  <Bond_Score>  (1) 
0.5168

>  <Rank>  (1) 
1

>  <Subtype>  (1) 
REACTION

>  <Subtype_Scores>  (1) 
[REACTION] SOM_score: 0.5168, Reaction_score: 0.2881, Score: 0.3859


$$$$

     RDKit          2D

 45 47  0  0  0  0  0  0  0  0999 V2000
    3.0000    0.0000    0.0000 C   0  0  0  0  0  0  0  0  0 30  0  0
    3.7500   -1.2990    0.0000 N   0  0  0  0  0  0  0  0  0 10  0  0
    1.5000    0.0000    0.0000 C   0  0  0  0  0  0  0  0  0 26  0  0
    3.7500    1.2990    0.0000 O   0  0  0  0  0  0  0  0  0  7  0  0
    0.7500   -1.2990    0.0000 C   0  0  0  0  0  0  0  0  0 23  0  0
    0.7500    1.2990    0.0000 C   0  0  0  0  0  0  0  0  0 24  0  0
   -0.7500   -1.2990    0.0000 C   0  0  0  0  0  0  0  0  0 19  0  0
    1.5000   -2.5981    0.0000 F   0  0  0  0  0  0  0  0  0  2  0  0
   -0.7500    1.2990    0.0000 C   0  0  0  0  0  0  0  0  0 20  0  0
    1.5000    2.5981    0.0000 H   0  0  0  0  0  0  0  0  0  0  0  0
   -1.5000    0.0000    0.0000 C   0  0  0  0  0  0  0  0  0 17  0  0
   -1.5000   -2.5981    0.0000 H   0  0  0  0  0  0  0  0  0  0  0  0
   -1.0615    2.0328    0.0000 H   0  0  0  0  0  0  0  0  0  0  0  0
   -3.0000    0.0000    0.0000 N   0  0  0  0  0  0  0  0  0  8  0  0
   -3.8817   -1.2135    0.0000 C   0  0  0  0  0  0  0  0  0 16  0  0
   -3.8817    1.2135    0.0000 C   0  0  0  0  0  0  0  0  0 12  0  0
   -3.4182   -2.6401    0.0000 S   0  0  0  0  0  0  0  0  0  1  0  0
   -5.3083   -0.7500    0.0000 N   0  0  0  0  0  0  0  0  0  9  0  0
   -4.4918    2.5838    0.0000 C   0  0  0  0  0  0  0  0  0 14  0  0
   -2.5826    1.9635    0.0000 C   0  0  0  0  0  0  0  0  0 15  0  0
   -5.3083    0.7500    0.0000 C   0  0  0  0  0  0  0  0  0 13  0  0
   -6.5218   -1.6317    0.0000 C   0  0  0  0  0  0  0  0  0 18  0  0
   -5.1019    3.9542    0.0000 H   0  0  0  0  0  0  0  0  0  0  0  0
   -3.2061    3.3564    0.0000 H   0  0  0  0  0  0  0  0  0  0  0  0
   -5.9263    2.1453    0.0000 H   0  0  0  0  0  0  0  0  0  0  0  0
   -1.9460    2.4433    0.0000 H   0  0  0  0  0  0  0  0  0  0  0  0
   -3.1687    3.3443    0.0000 H   0  0  0  0  0  0  0  0  0  0  0  0
   -1.5406    0.8846    0.0000 H   0  0  0  0  0  0  0  0  0  0  0  0
   -6.6202    1.4772    0.0000 O   0  0  0  0  0  0  0  0  0  6  0  0
   -7.8921   -1.0216    0.0000 C   0  0  0  0  0  0  0  0  0 21  0  0
   -6.3650   -3.1235    0.0000 C   0  0  0  0  0  0  0  0  0 22  0  0
   -9.1056   -1.9033    0.0000 C   0  0  0  0  0  0  0  0  0 25  0  0
   -8.0489    0.4702    0.0000 H   0  0  0  0  0  0  0  0  0  0  0  0
   -7.5785   -4.0051    0.0000 C   0  0  0  0  0  0  0  0  0 27  0  0
   -4.9947   -3.7336    0.0000 H   0  0  0  0  0  0  0  0  0  0  0  0
  -10.4760   -1.2931    0.0000 C   0  0  0  0  0  0  0  0  0 29  0  0
   -8.9488   -3.3950    0.0000 C   0  0  0  0  0  0  0  0  0 28  0  0
   -7.4217   -5.4969    0.0000 H   0  0  0  0  0  0  0  0  0  0  0  0
  -11.8463   -0.6830    0.0000 F   0  0  0  0  0  0  0  0  0  3  0  0
  -11.0861   -2.6635    0.0000 F   0  0  0  0  0  0  0  0  0  4  0  0
   -9.8658    0.0772    0.0000 F   0  0  0  0  0  0  0  0  0  5  0  0
  -10.1624   -4.2767    0.0000 C   0  0  0  0  0  0  0  0  0 31  0  0
  -11.3759   -5.1584    0.0000 N   0  0  0  0  0  0  0  0  0 11  0  0
    5.2500   -1.2990    0.0000 H   0  0  0  0  0  0  0  0  0  0  0  0
    3.0000   -2.5981    0.0000 H   0  0  0  0  0  0  0  0  0  0  0  0
  1  2  1  0
  3  1  1  0
  1  4  2  0
  5  3  2  0
  3  6  1  0
  7  5  1  0
  5  8  1  0
  6  9  2  0
  6 10  1  0
 11  7  2  0
  7 12  1  0
  9 11  1  0
  9 13  1  0
 14 11  1  0
 15 14  1  0
 14 16  1  0
 17 15  2  0
 18 15  1  0
 16 19  1  1
 16 20  1  0
 16 21  1  0
 21 18  1  0
 18 22  1  0
 19 23  1  0
 19 24  1  0
 19 25  1  0
 20 26  1  0
 20 27  1  0
 20 28  1  0
 21 29  2  0
 22 30  2  0
 31 22  1  0
 30 32  1  0
 30 33  1  0
 34 31  2  0
 31 35  1  0
 32 36  1  0
 32 37  2  0
 37 34  1  0
 34 38  1  0
 36 39  1  6
 36 40  1  0
 36 41  1  0
 37 42  1  0
 42 43  3  0
  2 44  1  0
  2 45  1  0
M  END
>  <SMILES>  (2) 
CC1(C)C(=O)N(c2ccc(C#N)c(C(F)(F)F)c2)C(=S)N1c1ccc(C(N)=O)c(F)c1

>  <Molecular Weight>  (2) 
450.4

>  <Substrate_ID>  (2) 
MOL0089

>  <Substrate>  (2) 


>  <Substrate_SMILES>  (2) 
CNC(=O)c1ccc(N2C(=S)N(c3ccc(C#N)c(C(F)(F)F)c3)C(=O)C2(C)C)cc1F

>  <Reaction>  (2) 
N-demethylation_(R-NHCH3)

>  <Score>  (2) 
0.333

>  <Reaction_Score>  (2) 
0.3224

>  <Bond_Score>  (2) 
0.3439

>  <Rank>  (2) 
2

>  <Subtype>  (2) 
REACTION

>  <Subtype_Scores>  (2) 
[REACTION] SOM_score: 0.3439, Reaction_score: 0.3224, Score: 0.3330


$$$$

     RDKit          2D

 49 51  0  0  0  0  0  0  0  0999 V2000
    3.9955   -1.6402    0.0000 S   0  0  0  0  0  4  0  0  0  1  0  0
    5.4898   -1.7708    0.0000 O   0  0  0  0  0  0  0  0  0 33  0  0
    2.9918   -2.7549    0.0000 C   0  0  0  0  0  0  0  0  0 16  0  0
    1.5000   -2.5981    0.0000 N   0  0  0  0  0  0  0  0  0  8  0  0
    3.3037   -4.2221    0.0000 N   0  0  0  0  0  0  0  0  0  9  0  0
    0.7500   -1.2990    0.0000 C   0  0  0  0  0  0  0  0  0 17  0  0
    0.8899   -3.9684    0.0000 C   0  0  0  0  0  0  0  0  0 12  0  0
    2.0046   -4.9721    0.0000 C   0  0  0  0  0  0  0  0  0 13  0  0
    4.6740   -4.8322    0.0000 C   0  0  0  0  0  0  0  0  0 18  0  0
    1.5000    0.0000    0.0000 C   0  0  0  0  0  0  0  0  0 19  0  0
   -0.7500   -1.2990    0.0000 C   0  0  0  0  0  0  0  0  0 20  0  0
    0.0082   -5.1819    0.0000 C   0  0  0  0  0  0  0  0  0 14  0  0
   -0.4091   -3.2184    0.0000 C   0  0  0  0  0  0  0  0  0 15  0  0
    2.0308   -6.4719    0.0000 O   0  0  0  0  0  0  0  0  0  6  0  0
    4.8308   -6.3240    0.0000 C   0  0  0  0  0  0  0  0  0 21  0  0
    5.8875   -3.9505    0.0000 C   0  0  0  0  0  0  0  0  0 22  0  0
    0.7500    1.2990    0.0000 C   0  0  0  0  0  0  0  0  0 23  0  0
    3.0000    0.0000    0.0000 H   0  0  0  0  0  0  0  0  0  0  0  0
   -1.5000    0.0000    0.0000 C   0  0  0  0  0  0  0  0  0 24  0  0
   -1.2298   -1.9357    0.0000 H   0  0  0  0  0  0  0  0  0  0  0  0
   -0.8735   -6.3954    0.0000 H   0  0  0  0  0  0  0  0  0  0  0  0
   -1.3037   -4.4547    0.0000 H   0  0  0  0  0  0  0  0  0  0  0  0
    1.1052   -6.2049    0.0000 H   0  0  0  0  0  0  0  0  0  0  0  0
   -1.1429   -2.9069    0.0000 H   0  0  0  0  0  0  0  0  0  0  0  0
   -1.3119   -4.4163    0.0000 H   0  0  0  0  0  0  0  0  0  0  0  0
    0.0042   -1.7765    0.0000 H   0  0  0  0  0  0  0  0  0  0  0  0
    6.2011   -6.9341    0.0000 C   0  0  0  0  0  0  0  0  0 25  0  0
    3.6172   -7.2057    0.0000 H   0  0  0  0  0  0  0  0  0  0  0  0
    7.2578   -4.5606    0.0000 C   0  0  0  0  0  0  0  0  0 27  0  0
    5.9137   -2.4507    0.0000 H   0  0  0  0  0  0  0  0  0  0  0  0
    1.5000    2.5981    0.0000 F   0  0  0  0  0  0  0  0  0  2  0  0
   -0.7500    1.2990    0.0000 C   0  0  0  0  0  0  0  0  0 26  0  0
   -3.0000    0.0000    0.0000 H   0  0  0  0  0  0  0  0  0  0  0  0
    6.3579   -8.4259    0.0000 C   0  0  0  0  0  0  0  0  0 29  0  0
    7.4146   -6.0524    0.0000 C   0  0  0  0  0  0  0  0  0 28  0  0
    8.4713   -3.6789    0.0000 H   0  0  0  0  0  0  0  0  0  0  0  0
   -1.5000    2.5981    0.0000 C   0  0  0  0  0  0  0  0  0 30  0  0
    6.5147   -9.9176    0.0000 F   0  0  0  0  0  0  0  0  0  3  0  0
    7.8497   -8.2691    0.0000 F   0  0  0  0  0  0  0  0  0  4  0  0
    4.8661   -8.5827    0.0000 F   0  0  0  0  0  0  0  0  0  5  0  0
    8.7849   -6.6625    0.0000 C   0  0  0  0  0  0  0  0  0 31  0  0
   -3.0000    2.5981    0.0000 O   0  0  0  0  0  0  0  0  0  7  0  0
   -0.7500    3.8971    0.0000 N   0  0  0  0  0  0  0  0  0 10  0  0
   10.1552   -7.2726    0.0000 N   0  0  0  0  0  0  0  0  0 11  0  0
   -1.5000    5.1962    0.0000 C   0  0  0  0  0  0  0  0  0 32  0  0
    0.7500    3.8971    0.0000 H   0  0  0  0  0  0  0  0  0  0  0  0
   -2.2500    6.4952    0.0000 H   0  0  0  0  0  0  0  0  0  0  0  0
   -0.2010    5.9462    0.0000 H   0  0  0  0  0  0  0  0  0  0  0  0
   -2.7990    4.4462    0.0000 H   0  0  0  0  0  0  0  0  0  0  0  0
  1  2  2  0
  1  3  2  0
  3  4  1  0
  5  3  1  0
  4  6  1  0
  4  7  1  0
  8  5  1  0
  5  9  1  0
  6 10  2  0
 11  6  1  0
  7 12  1  1
  7 13  1  0
  7  8  1  0
  8 14  2  0
  9 15  2  0
 16  9  1  0
 10 17  1  0
 10 18  1  0
 19 11  2  0
 11 20  1  0
 12 21  1  0
 12 22  1  0
 12 23  1  0
 13 24  1  0
 13 25  1  0
 13 26  1  0
 15 27  1  0
 15 28  1  0
 29 16  2  0
 16 30  1  0
 17 31  1  0
 17 32  2  0
 32 19  1  0
 19 33  1  0
 27 34  1  0
 27 35  2  0
 35 29  1  0
 29 36  1  0
 32 37  1  0
 34 38  1  6
 34 39  1  0
 34 40  1  0
 35 41  1  0
 37 42  2  0
 37 43  1  0
 41 44  3  0
 43 45  1  0
 43 46  1  0
 45 47  1  0
 45 48  1  0
 45 49  1  0
M  END
>  <SMILES>  (3) 
CNC(=O)c1ccc(N2C(=S=O)N(c3ccc(C#N)c(C(F)(F)F)c3)C(=O)C2(C)C)cc1F

>  <Molecular Weight>  (3) 
480.4

>  <Substrate_ID>  (3) 
MOL0089

>  <Substrate>  (3) 


>  <Substrate_SMILES>  (3) 
CNC(=O)c1ccc(N2C(=S)N(c3ccc(C#N)c(C(F)(F)F)c3)C(=O)C2(C)C)cc1F

>  <Reaction>  (3) 
S-oxidation

>  <Score>  (3) 
0.2388

>  <Reaction_Score>  (3) 
0.1217

>  <Bond_Score>  (3) 
0.4685

>  <Rank>  (3) 
3

>  <Subtype>  (3) 
REACTION

>  <Subtype_Scores>  (3) 
[REACTION] SOM_score: 0.4685, Reaction_score: 0.1217, Score: 0.2388


$$$$
