
     RDKit          2D

 52 54  0  0  0  0  0  0  0  0999 V2000
    5.1881   -4.3372    0.0000 N   0  0  0  0  0  0  0  0  0  5  0  0
    4.1679   -3.2376    0.0000 C   0  0  0  0  0  0  0  0  0 22  0  0
    6.6505   -4.0034    0.0000 C   0  0  0  0  0  0  0  0  0 21  0  0
    3.1476   -2.1380    0.0000 C   0  0  0  0  0  0  0  0  0 24  0  0
    5.2675   -2.2173    0.0000 H   0  0  0  0  0  0  0  0  0  0  0  0
    3.8167   -3.9532    0.0000 H   0  0  0  0  0  0  0  0  0  0  0  0
    8.1129   -3.6696    0.0000 C   0  0  0  0  0  0  0  0  0  9  0  0
    6.3168   -2.5410    0.0000 H   0  0  0  0  0  0  0  0  0  0  0  0
    6.9843   -5.4658    0.0000 H   0  0  0  0  0  0  0  0  0  0  0  0
    1.6852   -2.4718    0.0000 N   0  0  0  0  0  0  0  0  0  6  0  0
    3.5898   -0.7046    0.0000 O   0  0  0  0  0  0  0  0  0  2  0  0
    9.5753   -3.3358    0.0000 H   0  0  0  0  0  0  0  0  0  0  0  0
    7.7791   -2.2072    0.0000 H   0  0  0  0  0  0  0  0  0  0  0  0
    8.4467   -5.1320    0.0000 H   0  0  0  0  0  0  0  0  0  0  0  0
    0.7500   -1.2990    0.0000 C   0  0  0  0  0  0  0  0  0 29  0  0
    1.3515   -3.9342    0.0000 C   0  0  0  0  0  0  0  0  0 28  0  0
   -0.7500   -1.2990    0.0000 C   0  0  0  0  0  0  0  0  0 27  0  0
    1.5000    0.0000    0.0000 C   0  0  0  0  0  0  0  0  0 16  0  0
    2.5908   -4.7792    0.0000 C   0  0  0  0  0  0  0  0  0 15  0  0
   -0.0000   -4.5850    0.0000 C   0  0  0  0  0  0  0  0  0 26  0  0
   -1.5000    0.0000    0.0000 C   0  0  0  0  0  0  0  0  0 14  0  0
   -1.6852   -2.4718    0.0000 C   0  0  0  0  0  0  0  0  0 19  0  0
    0.7500    1.2990    0.0000 C   0  0  0  0  0  0  0  0  0 25  0  0
    3.0000    0.0000    0.0000 H   0  0  0  0  0  0  0  0  0  0  0  0
    2.4787   -6.2750    0.0000 C   0  0  0  0  0  0  0  0  0 11  0  0
    3.3458   -4.5234    0.0000 H   0  0  0  0  0  0  0  0  0  0  0  0
   -0.1121   -6.0808    0.0000 C   0  0  0  0  0  0  0  0  0 13  0  0
   -1.3515   -3.9342    0.0000 C   0  0  0  0  0  0  0  0  0 18  0  0
   -0.7500    1.2990    0.0000 C   0  0  0  0  0  0  0  0  0 12  0  0
   -3.0000    0.0000    0.0000 H   0  0  0  0  0  0  0  0  0  0  0  0
   -3.1059   -2.9530    0.0000 H   0  0  0  0  0  0  0  0  0  0  0  0
   -2.6205   -1.2990    0.0000 H   0  0  0  0  0  0  0  0  0  0  0  0
    1.5000    2.5981    0.0000 N   0  0  0  0  0  0  0  0  0  4  0  0
    1.1273   -6.9258    0.0000 C   0  0  0  0  0  0  0  0  0 10  0  0
    3.7181   -7.1199    0.0000 H   0  0  0  0  0  0  0  0  0  0  0  0
   -1.4635   -6.7316    0.0000 H   0  0  0  0  0  0  0  0  0  0  0  0
   -1.6852   -5.3966    0.0000 H   0  0  0  0  0  0  0  0  0  0  0  0
   -2.8403   -4.1170    0.0000 H   0  0  0  0  0  0  0  0  0  0  0  0
   -1.5000    2.5981    0.0000 H   0  0  0  0  0  0  0  0  0  0  0  0
    0.7500    3.8971    0.0000 C   0  0  0  0  0  0  0  0  0 23  0  0
    3.0000    2.5981    0.0000 H   0  0  0  0  0  0  0  0  0  0  0  0
    1.0152   -8.4216    0.0000 H   0  0  0  0  0  0  0  0  0  0  0  0
    1.5000    5.1962    0.0000 O   0  0  0  0  0  0  0  0  0  1  0  0
   -0.7500    3.8971    0.0000 O   0  0  0  0  0  0  0  0  0  3  0  0
   -1.5000    5.1962    0.0000 C   0  0  0  0  0  0  0  0  0 17  0  0
   -2.2500    6.4952    0.0000 C   0  0  0  0  0  0  0  0  0  7  0  0
   -0.2010    5.9462    0.0000 H   0  0  0  0  0  0  0  0  0  0  0  0
   -2.7990    4.4462    0.0000 H   0  0  0  0  0  0  0  0  0  0  0  0
   -3.0000    7.7942    0.0000 H   0  0  0  0  0  0  0  0  0  0  0  0
   -0.9510    7.2452    0.0000 H   0  0  0  0  0  0  0  0  0  0  0  0
   -3.5490    5.7452    0.0000 H   0  0  0  0  0  0  0  0  0  0  0  0
    4.7460   -5.7705    0.0000 H   0  0  0  0  0  0  0  0  0  0  0  0
  2  1  1  0
  1  3  1  0
  4  2  1  0
  2  5  1  0
  2  6  1  0
  3  7  1  0
  3  8  1  0
  3  9  1  0
 10  4  1  0
  4 11  2  0
  7 12  1  0
  7 13  1  0
  7 14  1  0
 15 10  1  0
 10 16  1  0
 17 15  2  0
 15 18  1  0
 16 19  1  0
 20 16  2  0
 21 17  1  0
 22 17  1  0
 18 23  2  0
 18 24  1  0
 19 25  2  0
 19 26  1  0
 27 20  1  0
 20 28  1  0
 29 21  2  0
 21 30  1  0
 28 22  1  0
 22 31  1  0
 22 32  1  0
 33 23  1  0
 23 29  1  0
 25 34  1  0
 25 35  1  0
 34 27  2  0
 27 36  1  0
 28 37  1  0
 28 38  1  0
 29 39  1  0
 40 33  1  0
 33 41  1  0
 34 42  1  0
 43 40  2  0
 40 44  1  0
 44 45  1  0
 45 46  1  0
 45 47  1  0
 45 48  1  0
 46 49  1  0
 46 50  1  0
 46 51  1  0
  1 52  1  0
M  END
>  <SMILES>  (1) 
CCNCC(=O)N1c2ccccc2CCc2ccc(NC(=O)OCC)cc21

>  <Molecular Weight>  (1) 
367.4

>  <Substrate_ID>  (1) 
MOL0060

>  <Substrate>  (1) 


>  <Substrate_SMILES>  (1) 
CCOC(=O)Nc1ccc2c(c1)N(C(=O)CN(CC)CC)c1ccccc1CC2

>  <Reaction>  (1) 
N-dealkylation_(tertiaryN-CH2-alkyl)

>  <Score>  (1) 
0.847

>  <Reaction_Score>  (1) 
0.8229

>  <Bond_Score>  (1) 
0.8718

>  <Rank>  (1) 
1

>  <Subtype>  (1) 
REACTION

>  <Subtype_Scores>  (1) 
[REACTION] SOM_score: 0.8718, Reaction_score: 0.8229, Score: 0.8470


$$$$

     RDKit          2D

 59 61  0  0  0  0  0  0  0  0999 V2000
    6.0000   -2.5981    0.0000 C   0  0  0  0  0  0  0  0  0 17  0  0
    4.7010   -3.3481    0.0000 O   0  0  0  0  0  0  0  0  0 30  0  0
    4.7010   -4.8481    0.0000 H   0  0  0  0  0  0  0  0  0  0  0  0
    5.2500   -1.2990    0.0000 O   0  0  0  0  0  0  0  0  0  3  0  0
    7.2990   -1.8481    0.0000 C   0  0  0  0  0  0  0  0  0  7  0  0
    6.7500   -3.8971    0.0000 H   0  0  0  0  0  0  0  0  0  0  0  0
    3.7500   -1.2990    0.0000 C   0  0  0  0  0  0  0  0  0 23  0  0
    8.5981   -1.0981    0.0000 H   0  0  0  0  0  0  0  0  0  0  0  0
    8.0490   -3.1471    0.0000 H   0  0  0  0  0  0  0  0  0  0  0  0
    6.5490   -0.5490    0.0000 H   0  0  0  0  0  0  0  0  0  0  0  0
    3.0000   -2.5981    0.0000 O   0  0  0  0  0  0  0  0  0  1  0  0
    3.0000   -0.0000    0.0000 N   0  0  0  0  0  0  0  0  0  4  0  0
    1.5000    0.0000    0.0000 C   0  0  0  0  0  0  0  0  0 25  0  0
    4.0420    1.0790    0.0000 H   0  0  0  0  0  0  0  0  0  0  0  0
    0.7500   -1.2990    0.0000 C   0  0  0  0  0  0  0  0  0 12  0  0
    0.7500    1.2990    0.0000 C   0  0  0  0  0  0  0  0  0 16  0  0
   -0.7500   -1.2990    0.0000 C   0  0  0  0  0  0  0  0  0 14  0  0
    1.5000   -2.5981    0.0000 H   0  0  0  0  0  0  0  0  0  0  0  0
   -0.7500    1.2990    0.0000 C   0  0  0  0  0  0  0  0  0 29  0  0
    1.2298    1.9357    0.0000 H   0  0  0  0  0  0  0  0  0  0  0  0
   -1.5000    0.0000    0.0000 C   0  0  0  0  0  0  0  0  0 27  0  0
   -1.5000   -2.5981    0.0000 H   0  0  0  0  0  0  0  0  0  0  0  0
   -1.2980    2.6953    0.0000 N   0  0  0  0  0  0  0  0  0  6  0  0
   -2.9832   -0.2236    0.0000 C   0  0  0  0  0  0  0  0  0 19  0  0
   -0.2778    3.7949    0.0000 C   0  0  0  0  0  0  0  0  0 24  0  0
   -2.7314    3.1375    0.0000 C   0  0  0  0  0  0  0  0  0 28  0  0
   -4.0828    0.7967    0.0000 C   0  0  0  0  0  0  0  0  0 18  0  0
   -4.1104   -1.2133    0.0000 H   0  0  0  0  0  0  0  0  0  0  0  0
   -2.4352   -1.6199    0.0000 H   0  0  0  0  0  0  0  0  0  0  0  0
   -0.7199    5.2283    0.0000 O   0  0  0  0  0  0  0  0  0  2  0  0
    1.1846    3.4611    0.0000 C   0  0  0  0  0  0  0  0  0 22  0  0
   -2.8435    4.6333    0.0000 C   0  0  0  0  0  0  0  0  0 15  0  0
   -3.9707    2.2925    0.0000 C   0  0  0  0  0  0  0  0  0 26  0  0
   -5.5162    1.2388    0.0000 H   0  0  0  0  0  0  0  0  0  0  0  0
   -4.9856   -0.4012    0.0000 H   0  0  0  0  0  0  0  0  0  0  0  0
    2.6470    3.1274    0.0000 N   0  0  0  0  0  0  0  0  0  5  0  0
    1.5184    4.9235    0.0000 H   0  0  0  0  0  0  0  0  0  0  0  0
    1.2976    2.6720    0.0000 H   0  0  0  0  0  0  0  0  0  0  0  0
   -4.1949    5.2841    0.0000 C   0  0  0  0  0  0  0  0  0 11  0  0
   -1.6041    5.4783    0.0000 H   0  0  0  0  0  0  0  0  0  0  0  0
   -5.3222    2.9433    0.0000 C   0  0  0  0  0  0  0  0  0 13  0  0
    3.6673    4.2269    0.0000 C   0  0  0  0  0  0  0  0  0 20  0  0
    3.0892    1.6940    0.0000 C   0  0  0  0  0  0  0  0  0 21  0  0
   -5.4343    4.4391    0.0000 C   0  0  0  0  0  0  0  0  0 10  0  0
   -4.3070    6.7799    0.0000 H   0  0  0  0  0  0  0  0  0  0  0  0
   -6.5615    2.0983    0.0000 H   0  0  0  0  0  0  0  0  0  0  0  0
    4.6875    5.3265    0.0000 C   0  0  0  0  0  0  0  0  0  8  0  0
    2.5677    5.2472    0.0000 H   0  0  0  0  0  0  0  0  0  0  0  0
    4.7669    3.2067    0.0000 H   0  0  0  0  0  0  0  0  0  0  0  0
    3.5313    0.2606    0.0000 C   0  0  0  0  0  0  0  0  0  9  0  0
    1.6558    1.2519    0.0000 H   0  0  0  0  0  0  0  0  0  0  0  0
    4.5225    2.1361    0.0000 H   0  0  0  0  0  0  0  0  0  0  0  0
   -6.7857    5.0900    0.0000 H   0  0  0  0  0  0  0  0  0  0  0  0
    5.7078    6.4261    0.0000 H   0  0  0  0  0  0  0  0  0  0  0  0
    3.5880    6.3468    0.0000 H   0  0  0  0  0  0  0  0  0  0  0  0
    5.7871    4.3063    0.0000 H   0  0  0  0  0  0  0  0  0  0  0  0
    4.3071   -1.0231    0.0000 H   0  0  0  0  0  0  0  0  0  0  0  0
    4.9647    0.7028    0.0000 H   0  0  0  0  0  0  0  0  0  0  0  0
    2.2475   -0.5152    0.0000 H   0  0  0  0  0  0  0  0  0  0  0  0
  1  2  1  0
  2  3  1  0
  4  1  1  0
  1  5  1  0
  1  6  1  0
  7  4  1  0
  5  8  1  0
  5  9  1  0
  5 10  1  0
 11  7  2  0
  7 12  1  0
 12 13  1  0
 12 14  1  0
 13 15  2  0
 16 13  1  0
 15 17  1  0
 15 18  1  0
 19 16  2  0
 16 20  1  0
 17 21  2  0
 17 22  1  0
 21 19  1  0
 19 23  1  0
 24 21  1  0
 23 25  1  0
 23 26  1  0
 27 24  1  0
 24 28  1  0
 24 29  1  0
 25 30  2  0
 25 31  1  0
 26 32  1  0
 33 26  2  0
 33 27  1  0
 27 34  1  0
 27 35  1  0
 31 36  1  0
 31 37  1  0
 31 38  1  0
 32 39  2  0
 32 40  1  0
 41 33  1  0
 36 42  1  0
 36 43  1  0
 39 44  1  0
 39 45  1  0
 44 41  2  0
 41 46  1  0
 42 47  1  0
 42 48  1  0
 42 49  1  0
 43 50  1  0
 43 51  1  0
 43 52  1  0
 44 53  1  0
 47 54  1  0
 47 55  1  0
 47 56  1  0
 50 57  1  0
 50 58  1  0
 50 59  1  0
M  END
>  <SMILES>  (2) 
CCN(CC)CC(=O)N1c2ccccc2CCc2ccc(NC(=O)OC(C)O)cc21

>  <Molecular Weight>  (2) 
411.5

>  <Substrate_ID>  (2) 
MOL0060

>  <Substrate>  (2) 


>  <Substrate_SMILES>  (2) 
CCOC(=O)Nc1ccc2c(c1)N(C(=O)CN(CC)CC)c1ccccc1CC2

>  <Reaction>  (2) 
aliphatic hydroxylation

>  <Score>  (2) 
0.34

>  <Reaction_Score>  (2) 
0.289

>  <Bond_Score>  (2) 
0.3999

>  <Rank>  (2) 
2

>  <Subtype>  (2) 
REACTION

>  <Subtype_Scores>  (2) 
[REACTION] SOM_score: 0.3999, Reaction_score: 0.2890, Score: 0.3400


$$$$

     RDKit          2D

 59 61  0  0  0  0  0  0  0  0999 V2000
    0.7500   -1.2990    0.0000 C   0  0  0  0  0  0  0  0  0 27  0  0
    1.6852   -2.4718    0.0000 C   0  0  0  0  0  0  0  0  0 19  0  0
    2.6205   -1.2990    0.0000 O   0  0  0  0  0  0  0  0  0 30  0  0
    1.3515   -3.9342    0.0000 C   0  0  0  0  0  0  0  0  0 18  0  0
    1.5000    0.0000    0.0000 C   0  0  0  0  0  0  0  0  0 14  0  0
   -0.7500   -1.2990    0.0000 C   0  0  0  0  0  0  0  0  0 29  0  0
    0.7500    1.2990    0.0000 C   0  0  0  0  0  0  0  0  0 12  0  0
    3.0000    0.0000    0.0000 H   0  0  0  0  0  0  0  0  0  0  0  0
   -1.5000    0.0000    0.0000 C   0  0  0  0  0  0  0  0  0 16  0  0
   -1.6852   -2.4718    0.0000 N   0  0  0  0  0  0  0  0  0  6  0  0
   -0.7500    1.2990    0.0000 C   0  0  0  0  0  0  0  0  0 25  0  0
    1.5000    2.5981    0.0000 H   0  0  0  0  0  0  0  0  0  0  0  0
   -3.0000    0.0000    0.0000 H   0  0  0  0  0  0  0  0  0  0  0  0
   -3.1476   -2.1380    0.0000 C   0  0  0  0  0  0  0  0  0 24  0  0
   -1.3515   -3.9342    0.0000 C   0  0  0  0  0  0  0  0  0 28  0  0
   -1.5000    2.5981    0.0000 N   0  0  0  0  0  0  0  0  0  4  0  0
   -3.5898   -0.7046    0.0000 O   0  0  0  0  0  0  0  0  0  2  0  0
   -4.1679   -3.2376    0.0000 C   0  0  0  0  0  0  0  0  0 22  0  0
   -2.5908   -4.7792    0.0000 C   0  0  0  0  0  0  0  0  0 15  0  0
   -0.0000   -4.5850    0.0000 C   0  0  0  0  0  0  0  0  0 26  0  0
   -0.7500    3.8971    0.0000 C   0  0  0  0  0  0  0  0  0 23  0  0
   -3.0000    2.5981    0.0000 H   0  0  0  0  0  0  0  0  0  0  0  0
   -5.1881   -4.3372    0.0000 N   0  0  0  0  0  0  0  0  0  5  0  0
   -5.2675   -2.2173    0.0000 H   0  0  0  0  0  0  0  0  0  0  0  0
   -3.8167   -3.9532    0.0000 H   0  0  0  0  0  0  0  0  0  0  0  0
   -2.4787   -6.2750    0.0000 C   0  0  0  0  0  0  0  0  0 11  0  0
   -3.3458   -4.5234    0.0000 H   0  0  0  0  0  0  0  0  0  0  0  0
    0.1121   -6.0808    0.0000 C   0  0  0  0  0  0  0  0  0 13  0  0
   -1.5000    5.1962    0.0000 O   0  0  0  0  0  0  0  0  0  1  0  0
    0.7500    3.8971    0.0000 O   0  0  0  0  0  0  0  0  0  3  0  0
   -6.6505   -4.0034    0.0000 C   0  0  0  0  0  0  0  0  0 20  0  0
   -4.7460   -5.7705    0.0000 C   0  0  0  0  0  0  0  0  0 21  0  0
   -1.1273   -6.9258    0.0000 C   0  0  0  0  0  0  0  0  0 10  0  0
   -3.4768   -7.3947    0.0000 H   0  0  0  0  0  0  0  0  0  0  0  0
    1.4635   -6.7316    0.0000 H   0  0  0  0  0  0  0  0  0  0  0  0
    1.5000    5.1962    0.0000 C   0  0  0  0  0  0  0  0  0 17  0  0
   -8.1129   -3.6696    0.0000 C   0  0  0  0  0  0  0  0  0  8  0  0
   -6.3168   -2.5410    0.0000 H   0  0  0  0  0  0  0  0  0  0  0  0
   -6.9843   -5.4658    0.0000 H   0  0  0  0  0  0  0  0  0  0  0  0
   -4.3039   -7.2039    0.0000 C   0  0  0  0  0  0  0  0  0  9  0  0
   -3.3127   -5.3284    0.0000 H   0  0  0  0  0  0  0  0  0  0  0  0
   -6.1794   -6.2127    0.0000 H   0  0  0  0  0  0  0  0  0  0  0  0
   -1.0152   -8.4216    0.0000 H   0  0  0  0  0  0  0  0  0  0  0  0
    2.2500    6.4952    0.0000 C   0  0  0  0  0  0  0  0  0  7  0  0
    0.2010    5.9462    0.0000 H   0  0  0  0  0  0  0  0  0  0  0  0
    2.7990    4.4462    0.0000 H   0  0  0  0  0  0  0  0  0  0  0  0
   -9.5753   -3.3358    0.0000 H   0  0  0  0  0  0  0  0  0  0  0  0
   -7.7791   -2.2072    0.0000 H   0  0  0  0  0  0  0  0  0  0  0  0
   -8.4467   -5.1320    0.0000 H   0  0  0  0  0  0  0  0  0  0  0  0
   -3.8617   -8.6372    0.0000 H   0  0  0  0  0  0  0  0  0  0  0  0
   -5.7372   -7.6460    0.0000 H   0  0  0  0  0  0  0  0  0  0  0  0
   -2.8061   -7.1217    0.0000 H   0  0  0  0  0  0  0  0  0  0  0  0
    3.0000    7.7942    0.0000 H   0  0  0  0  0  0  0  0  0  0  0  0
    0.9510    7.2452    0.0000 H   0  0  0  0  0  0  0  0  0  0  0  0
    3.5490    5.7452    0.0000 H   0  0  0  0  0  0  0  0  0  0  0  0
    3.1059   -2.9530    0.0000 H   0  0  0  0  0  0  0  0  0  0  0  0
    2.8403   -4.1170    0.0000 H   0  0  0  0  0  0  0  0  0  0  0  0
    1.6852   -5.3966    0.0000 H   0  0  0  0  0  0  0  0  0  0  0  0
    4.1037   -1.5226    0.0000 H   0  0  0  0  0  0  0  0  0  0  0  0
  1  2  1  0
  2  3  1  0
  2  4  1  0
  5  1  2  0
  1  6  1  0
  7  5  1  0
  5  8  1  0
  6  9  2  0
  6 10  1  0
 11  7  2  0
  7 12  1  0
  9 11  1  0
  9 13  1  0
 10 14  1  0
 10 15  1  0
 16 11  1  0
 14 17  2  0
 14 18  1  0
 15 19  2  0
 20 15  1  0
 21 16  1  0
 16 22  1  0
 18 23  1  0
 18 24  1  0
 18 25  1  0
 19 26  1  0
 19 27  1  0
 28 20  2  0
 20  4  1  0
 29 21  2  0
 21 30  1  0
 23 31  1  0
 23 32  1  0
 26 33  2  0
 26 34  1  0
 33 28  1  0
 28 35  1  0
 30 36  1  0
 31 37  1  0
 31 38  1  0
 31 39  1  0
 32 40  1  0
 32 41  1  0
 32 42  1  0
 33 43  1  0
 36 44  1  0
 36 45  1  0
 36 46  1  0
 37 47  1  0
 37 48  1  0
 37 49  1  0
 40 50  1  0
 40 51  1  0
 40 52  1  0
 44 53  1  0
 44 54  1  0
 44 55  1  0
  2 56  1  0
  4 57  1  0
  4 58  1  0
  3 59  1  0
M  END
>  <SMILES>  (3) 
CCOC(=O)Nc1ccc2c(c1)N(C(=O)CN(CC)CC)c1ccccc1CC2O

>  <Molecular Weight>  (3) 
411.5

>  <Substrate_ID>  (3) 
MOL0060

>  <Substrate>  (3) 


>  <Substrate_SMILES>  (3) 
CCOC(=O)Nc1ccc2c(c1)N(C(=O)CN(CC)CC)c1ccccc1CC2

>  <Reaction>  (3) 
benzylic_hydroxylation_(c-CH2-CR),aliphatic hydroxylation

>  <Score>  (3) 
0.2438

>  <Reaction_Score>  (3) 
0.2358

>  <Bond_Score>  (3) 
0.2521

>  <Rank>  (3) 
3

>  <Subtype>  (3) 
REACTION

>  <Subtype_Scores>  (3) 
[REACTION] SOM_score: 0.2521, Reaction_score: 0.2358, Score: 0.2438


$$$$

     RDKit          2D

 59 61  0  0  0  0  0  0  0  0999 V2000
    0.7500   -1.2990    0.0000 C   0  0  0  0  0  0  0  0  0 26  0  0
    1.6852   -2.4718    0.0000 C   0  0  0  0  0  0  0  0  0 18  0  0
    2.6205   -1.2990    0.0000 O   0  0  0  0  0  0  0  0  0 30  0  0
    1.3515   -3.9342    0.0000 C   0  0  0  0  0  0  0  0  0 19  0  0
    1.5000    0.0000    0.0000 C   0  0  0  0  0  0  0  0  0 13  0  0
   -0.7500   -1.2990    0.0000 C   0  0  0  0  0  0  0  0  0 28  0  0
    0.7500    1.2990    0.0000 C   0  0  0  0  0  0  0  0  0 10  0  0
    3.0000    0.0000    0.0000 H   0  0  0  0  0  0  0  0  0  0  0  0
   -1.6852   -2.4718    0.0000 N   0  0  0  0  0  0  0  0  0  6  0  0
   -1.5000    0.0000    0.0000 C   0  0  0  0  0  0  0  0  0 15  0  0
   -0.7500    1.2990    0.0000 C   0  0  0  0  0  0  0  0  0 11  0  0
    1.5000    2.5981    0.0000 H   0  0  0  0  0  0  0  0  0  0  0  0
   -1.3515   -3.9342    0.0000 C   0  0  0  0  0  0  0  0  0 29  0  0
   -3.1476   -2.1380    0.0000 C   0  0  0  0  0  0  0  0  0 24  0  0
   -2.2912    0.0972    0.0000 H   0  0  0  0  0  0  0  0  0  0  0  0
   -1.1634    2.7410    0.0000 H   0  0  0  0  0  0  0  0  0  0  0  0
   -0.0000   -4.5850    0.0000 C   0  0  0  0  0  0  0  0  0 27  0  0
   -2.5908   -4.7792    0.0000 C   0  0  0  0  0  0  0  0  0 16  0  0
   -4.1679   -3.2376    0.0000 O   0  0  0  0  0  0  0  0  0  2  0  0
   -3.5898   -0.7046    0.0000 C   0  0  0  0  0  0  0  0  0 22  0  0
    0.1121   -6.0808    0.0000 C   0  0  0  0  0  0  0  0  0 14  0  0
   -2.4787   -6.2750    0.0000 C   0  0  0  0  0  0  0  0  0 25  0  0
   -3.9423   -4.1283    0.0000 H   0  0  0  0  0  0  0  0  0  0  0  0
   -4.0319    0.7287    0.0000 N   0  0  0  0  0  0  0  0  0  5  0  0
   -5.0231   -1.1468    0.0000 H   0  0  0  0  0  0  0  0  0  0  0  0
   -2.9629   -0.2122    0.0000 H   0  0  0  0  0  0  0  0  0  0  0  0
   -1.1273   -6.9258    0.0000 C   0  0  0  0  0  0  0  0  0 12  0  0
    1.4635   -6.7316    0.0000 H   0  0  0  0  0  0  0  0  0  0  0  0
   -3.7181   -7.1199    0.0000 N   0  0  0  0  0  0  0  0  0  4  0  0
   -5.4943    1.0625    0.0000 C   0  0  0  0  0  0  0  0  0 20  0  0
   -3.0116    1.8283    0.0000 C   0  0  0  0  0  0  0  0  0 21  0  0
   -1.0152   -8.4216    0.0000 H   0  0  0  0  0  0  0  0  0  0  0  0
   -3.6060   -8.6157    0.0000 C   0  0  0  0  0  0  0  0  0 23  0  0
   -5.0695   -6.4691    0.0000 H   0  0  0  0  0  0  0  0  0  0  0  0
   -6.9567    1.3963    0.0000 C   0  0  0  0  0  0  0  0  0  8  0  0
   -5.8281   -0.3999    0.0000 H   0  0  0  0  0  0  0  0  0  0  0  0
   -5.1605    2.5249    0.0000 H   0  0  0  0  0  0  0  0  0  0  0  0
   -1.9914    2.9279    0.0000 C   0  0  0  0  0  0  0  0  0  9  0  0
   -1.9121    0.8080    0.0000 H   0  0  0  0  0  0  0  0  0  0  0  0
   -4.1112    2.8486    0.0000 H   0  0  0  0  0  0  0  0  0  0  0  0
   -4.8453   -9.4607    0.0000 O   0  0  0  0  0  0  0  0  0  1  0  0
   -2.2545   -9.2666    0.0000 O   0  0  0  0  0  0  0  0  0  3  0  0
   -8.4191    1.7301    0.0000 H   0  0  0  0  0  0  0  0  0  0  0  0
   -7.2905   -0.0661    0.0000 H   0  0  0  0  0  0  0  0  0  0  0  0
   -6.6229    2.8587    0.0000 H   0  0  0  0  0  0  0  0  0  0  0  0
   -0.9711    4.0274    0.0000 H   0  0  0  0  0  0  0  0  0  0  0  0
   -3.0910    3.9481    0.0000 H   0  0  0  0  0  0  0  0  0  0  0  0
   -0.6776    2.2040    0.0000 H   0  0  0  0  0  0  0  0  0  0  0  0
   -2.1424  -10.7624    0.0000 C   0  0  0  0  0  0  0  0  0 17  0  0
   -2.0303  -12.2582    0.0000 C   0  0  0  0  0  0  0  0  0  7  0  0
   -3.6382  -10.8745    0.0000 H   0  0  0  0  0  0  0  0  0  0  0  0
   -0.6466  -10.6503    0.0000 H   0  0  0  0  0  0  0  0  0  0  0  0
   -1.9182  -13.7540    0.0000 H   0  0  0  0  0  0  0  0  0  0  0  0
   -3.5261  -12.3703    0.0000 H   0  0  0  0  0  0  0  0  0  0  0  0
   -0.5345  -12.1461    0.0000 H   0  0  0  0  0  0  0  0  0  0  0  0
    3.1059   -2.9530    0.0000 H   0  0  0  0  0  0  0  0  0  0  0  0
    2.8403   -4.1170    0.0000 H   0  0  0  0  0  0  0  0  0  0  0  0
    1.6852   -5.3966    0.0000 H   0  0  0  0  0  0  0  0  0  0  0  0
    4.1037   -1.5226    0.0000 H   0  0  0  0  0  0  0  0  0  0  0  0
  1  2  1  0
  2  3  1  0
  2  4  1  0
  5  1  2  0
  1  6  1  0
  7  5  1  0
  5  8  1  0
  9  6  1  0
  6 10  2  0
 11  7  2  0
  7 12  1  0
 13  9  1  0
  9 14  1  0
 10 11  1  0
 10 15  1  0
 11 16  1  0
 17 13  2  0
 13 18  1  0
 14 19  2  0
 14 20  1  0
 21 17  1  0
  4 17  1  0
 18 22  2  0
 18 23  1  0
 20 24  1  0
 20 25  1  0
 20 26  1  0
 27 21  2  0
 21 28  1  0
 29 22  1  0
 22 27  1  0
 24 30  1  0
 24 31  1  0
 27 32  1  0
 33 29  1  0
 29 34  1  0
 30 35  1  0
 30 36  1  0
 30 37  1  0
 31 38  1  0
 31 39  1  0
 31 40  1  0
 41 33  2  0
 33 42  1  0
 35 43  1  0
 35 44  1  0
 35 45  1  0
 38 46  1  0
 38 47  1  0
 38 48  1  0
 42 49  1  0
 49 50  1  0
 49 51  1  0
 49 52  1  0
 50 53  1  0
 50 54  1  0
 50 55  1  0
  2 56  1  0
  4 57  1  0
  4 58  1  0
  3 59  1  0
M  END
>  <SMILES>  (4) 
CCOC(=O)Nc1ccc2c(c1)N(C(=O)CN(CC)CC)c1ccccc1C(O)C2

>  <Molecular Weight>  (4) 
411.5

>  <Substrate_ID>  (4) 
MOL0060

>  <Substrate>  (4) 


>  <Substrate_SMILES>  (4) 
CCOC(=O)Nc1ccc2c(c1)N(C(=O)CN(CC)CC)c1ccccc1CC2

>  <Reaction>  (4) 
benzylic_hydroxylation_(c-CH2-CR),aliphatic hydroxylation

>  <Score>  (4) 
0.2419

>  <Reaction_Score>  (4) 
0.2311

>  <Bond_Score>  (4) 
0.2532

>  <Rank>  (4) 
4

>  <Subtype>  (4) 
REACTION

>  <Subtype_Scores>  (4) 
[REACTION] SOM_score: 0.2532, Reaction_score: 0.2311, Score: 0.2419


$$$$
