
     RDKit          2D

 47 50  0  0  0  0  0  0  0  0999 V2000
   -0.4086    3.6844    0.0000 C   0  0  0  0  0  0  0  0  0 22  0  0
   -0.0967    5.1517    0.0000 S   0  0  0  0  0  4  0  0  0  1  0  0
    1.3299    5.6152    0.0000 O   0  0  0  0  0  0  0  0  0 29  0  0
   -1.2114    6.1554    0.0000 C   0  0  0  0  0  0  0  0  0 24  0  0
   -1.8351    3.2209    0.0000 C   0  0  0  0  0  0  0  0  0 15  0  0
    0.7062    2.6807    0.0000 C   0  0  0  0  0  0  0  0  0 19  0  0
   -2.1470    1.7537    0.0000 C   0  0  0  0  0  0  0  0  0 20  0  0
   -2.6413    3.7854    0.0000 H   0  0  0  0  0  0  0  0  0  0  0  0
    0.3943    1.2135    0.0000 C   0  0  0  0  0  0  0  0  0 27  0  0
    2.1328    3.1443    0.0000 H   0  0  0  0  0  0  0  0  0  0  0  0
   -1.0323    0.7500    0.0000 C   0  0  0  0  0  0  0  0  0 28  0  0
   -3.5736    1.2902    0.0000 H   0  0  0  0  0  0  0  0  0  0  0  0
    1.2760    0.0000    0.0000 N   0  0  0  0  0  0  0  0  0  6  0  0
   -1.0323   -0.7500    0.0000 C   0  0  0  0  0  0  0  0  0 26  0  0
    0.3943   -1.2135    0.0000 N   0  0  0  0  0  0  0  0  0  4  0  0
    2.7760    0.0000    0.0000 H   0  0  0  0  0  0  0  0  0  0  0  0
   -2.2458   -1.6317    0.0000 C   0  0  0  0  0  0  0  0  0  9  0  0
   -2.0890   -3.1235    0.0000 C   0  0  0  0  0  0  0  0  0  8  0  0
   -3.6161   -1.0216    0.0000 H   0  0  0  0  0  0  0  0  0  0  0  0
   -3.3025   -4.0051    0.0000 C   0  0  0  0  0  0  0  0  0 23  0  0
   -0.7187   -3.7336    0.0000 H   0  0  0  0  0  0  0  0  0  0  0  0
   -4.6729   -3.3950    0.0000 N   0  0  0  0  0  0  0  0  0  3  0  0
   -3.1458   -5.4969    0.0000 C   0  0  0  0  0  0  0  0  0 16  0  0
   -5.8864   -4.2767    0.0000 C   0  0  0  0  0  0  0  0  0 14  0  0
   -4.3593   -6.3786    0.0000 C   0  0  0  0  0  0  0  0  0 11  0  0
   -1.7754   -6.1070    0.0000 H   0  0  0  0  0  0  0  0  0  0  0  0
   -5.7296   -5.7685    0.0000 C   0  0  0  0  0  0  0  0  0 10  0  0
   -7.2567   -3.6666    0.0000 H   0  0  0  0  0  0  0  0  0  0  0  0
   -4.2025   -7.8704    0.0000 H   0  0  0  0  0  0  0  0  0  0  0  0
   -6.9431   -6.6502    0.0000 H   0  0  0  0  0  0  0  0  0  0  0  0
   -2.6380    5.6918    0.0000 C   0  0  0  0  0  0  0  0  0 17  0  0
   -0.8995    7.6226    0.0000 C   0  0  0  0  0  0  0  0  0 25  0  0
   -3.7527    6.6955    0.0000 C   0  0  0  0  0  0  0  0  0 12  0  0
   -2.9584    4.7613    0.0000 H   0  0  0  0  0  0  0  0  0  0  0  0
   -2.0143    8.6263    0.0000 C   0  0  0  0  0  0  0  0  0 18  0  0
    0.5271    8.0861    0.0000 C   0  0  0  0  0  0  0  0  0 21  0  0
   -3.4408    8.1628    0.0000 C   0  0  0  0  0  0  0  0  0 13  0  0
   -5.1793    6.2320    0.0000 H   0  0  0  0  0  0  0  0  0  0  0  0
   -1.9285    9.6067    0.0000 H   0  0  0  0  0  0  0  0  0  0  0  0
    1.6418    7.0824    0.0000 O   0  0  0  0  0  0  0  0  0  2  0  0
    0.8389    9.5533    0.0000 N   0  0  0  0  0  0  0  0  0  5  0  0
   -4.5556    9.1664    0.0000 H   0  0  0  0  0  0  0  0  0  0  0  0
   -0.2758   10.5570    0.0000 C   0  0  0  0  0  0  0  0  0  7  0  0
    2.2655   10.0169    0.0000 H   0  0  0  0  0  0  0  0  0  0  0  0
    0.7279   11.6717    0.0000 H   0  0  0  0  0  0  0  0  0  0  0  0
   -1.0186    9.9114    0.0000 H   0  0  0  0  0  0  0  0  0  0  0  0
   -1.3905   11.5607    0.0000 H   0  0  0  0  0  0  0  0  0  0  0  0
  1  2  1  0
  2  3  2  0
  2  4  1  0
  1  5  2  0
  6  1  1  0
  5  7  1  0
  5  8  1  0
  9  6  2  0
  6 10  1  0
  7 11  2  0
  7 12  1  0
 13  9  1  0
  9 11  1  0
 11 14  1  0
 15 13  1  0
 13 16  1  0
 14 17  1  0
 14 15  2  0
 17 18  2  0
 17 19  1  0
 18 20  1  0
 18 21  1  0
 20 22  2  0
 23 20  1  0
 22 24  1  0
 25 23  2  0
 23 26  1  0
 24 27  2  0
 24 28  1  0
 27 25  1  0
 25 29  1  0
 27 30  1  0
  4 31  2  0
 32  4  1  0
 31 33  1  0
 31 34  1  0
 35 32  2  0
 32 36  1  0
 33 37  2  0
 33 38  1  0
 37 35  1  0
 35 39  1  0
 36 40  2  0
 36 41  1  0
 37 42  1  0
 41 43  1  0
 41 44  1  0
 43 45  1  0
 43 46  1  0
 43 47  1  0
M  END
>  <SMILES>  (1) 
CNC(=O)c1ccccc1S(=O)c1ccc2c(C=Cc3ccccn3)n[nH]c2c1

>  <Molecular Weight>  (1) 
402.5

>  <Substrate_ID>  (1) 
MOL0069

>  <Substrate>  (1) 


>  <Substrate_SMILES>  (1) 
CNC(=O)c1ccccc1Sc1ccc2c(C=Cc3ccccn3)n[nH]c2c1

>  <Reaction>  (1) 
sulfide_oxidation_(c-S-c),S-oxidation

>  <Score>  (1) 
0.4324

>  <Reaction_Score>  (1) 
0.2441

>  <Bond_Score>  (1) 
0.766

>  <Rank>  (1) 
1

>  <Subtype>  (1) 
REACTION

>  <Subtype_Scores>  (1) 
[REACTION] SOM_score: 0.7660, Reaction_score: 0.2441, Score: 0.4324


$$$$

     RDKit          2D

 47 50  0  0  0  0  0  0  0  0999 V2000
    2.2655   10.0169    0.0000 C   0  0  0  0  0  0  0  0  0  7  0  0
    3.6921   10.4804    0.0000 O   0  0  0  0  0  0  0  0  0 29  0  0
    4.0040   11.9476    0.0000 H   0  0  0  0  0  0  0  0  0  0  0  0
    0.8389    9.5533    0.0000 N   0  0  0  0  0  0  0  0  0  5  0  0
    2.7290    8.5903    0.0000 H   0  0  0  0  0  0  0  0  0  0  0  0
    1.8020   11.4434    0.0000 H   0  0  0  0  0  0  0  0  0  0  0  0
    0.5271    8.0861    0.0000 C   0  0  0  0  0  0  0  0  0 21  0  0
   -0.2758   10.5570    0.0000 H   0  0  0  0  0  0  0  0  0  0  0  0
   -0.8995    7.6226    0.0000 C   0  0  0  0  0  0  0  0  0 25  0  0
    1.6418    7.0824    0.0000 O   0  0  0  0  0  0  0  0  0  2  0  0
   -2.0143    8.6263    0.0000 C   0  0  0  0  0  0  0  0  0 18  0  0
   -1.2114    6.1554    0.0000 C   0  0  0  0  0  0  0  0  0 24  0  0
   -3.4408    8.1628    0.0000 C   0  0  0  0  0  0  0  0  0 13  0  0
   -1.7024   10.0935    0.0000 H   0  0  0  0  0  0  0  0  0  0  0  0
   -0.0967    5.1517    0.0000 S   0  0  0  0  0  0  0  0  0  1  0  0
   -2.6380    5.6918    0.0000 C   0  0  0  0  0  0  0  0  0 17  0  0
   -3.7527    6.6955    0.0000 C   0  0  0  0  0  0  0  0  0 12  0  0
   -4.5556    9.1664    0.0000 H   0  0  0  0  0  0  0  0  0  0  0  0
   -0.4086    3.6844    0.0000 C   0  0  0  0  0  0  0  0  0 22  0  0
   -2.9584    4.7613    0.0000 H   0  0  0  0  0  0  0  0  0  0  0  0
   -5.1793    6.2320    0.0000 H   0  0  0  0  0  0  0  0  0  0  0  0
   -1.8351    3.2209    0.0000 C   0  0  0  0  0  0  0  0  0 15  0  0
    0.7062    2.6807    0.0000 C   0  0  0  0  0  0  0  0  0 19  0  0
   -2.1470    1.7537    0.0000 C   0  0  0  0  0  0  0  0  0 20  0  0
   -2.6413    3.7854    0.0000 H   0  0  0  0  0  0  0  0  0  0  0  0
    0.3943    1.2135    0.0000 C   0  0  0  0  0  0  0  0  0 27  0  0
    2.1328    3.1443    0.0000 H   0  0  0  0  0  0  0  0  0  0  0  0
   -1.0323    0.7500    0.0000 C   0  0  0  0  0  0  0  0  0 28  0  0
   -3.5736    1.2902    0.0000 H   0  0  0  0  0  0  0  0  0  0  0  0
    1.2760    0.0000    0.0000 N   0  0  0  0  0  0  0  0  0  6  0  0
   -1.0323   -0.7500    0.0000 C   0  0  0  0  0  0  0  0  0 26  0  0
    0.3943   -1.2135    0.0000 N   0  0  0  0  0  0  0  0  0  4  0  0
    2.7760    0.0000    0.0000 H   0  0  0  0  0  0  0  0  0  0  0  0
   -2.2458   -1.6317    0.0000 C   0  0  0  0  0  0  0  0  0  9  0  0
   -2.0890   -3.1235    0.0000 C   0  0  0  0  0  0  0  0  0  8  0  0
   -3.6161   -1.0216    0.0000 H   0  0  0  0  0  0  0  0  0  0  0  0
   -3.3025   -4.0051    0.0000 C   0  0  0  0  0  0  0  0  0 23  0  0
   -0.7187   -3.7336    0.0000 H   0  0  0  0  0  0  0  0  0  0  0  0
   -4.6729   -3.3950    0.0000 N   0  0  0  0  0  0  0  0  0  3  0  0
   -3.1458   -5.4969    0.0000 C   0  0  0  0  0  0  0  0  0 16  0  0
   -5.8864   -4.2767    0.0000 C   0  0  0  0  0  0  0  0  0 14  0  0
   -4.3593   -6.3786    0.0000 C   0  0  0  0  0  0  0  0  0 11  0  0
   -1.7754   -6.1070    0.0000 H   0  0  0  0  0  0  0  0  0  0  0  0
   -5.7296   -5.7685    0.0000 C   0  0  0  0  0  0  0  0  0 10  0  0
   -7.2567   -3.6666    0.0000 H   0  0  0  0  0  0  0  0  0  0  0  0
   -4.2025   -7.8704    0.0000 H   0  0  0  0  0  0  0  0  0  0  0  0
   -6.9431   -6.6502    0.0000 H   0  0  0  0  0  0  0  0  0  0  0  0
  1  2  1  0
  2  3  1  0
  4  1  1  0
  1  5  1  0
  1  6  1  0
  7  4  1  0
  4  8  1  0
  9  7  1  0
  7 10  2  0
 11  9  2  0
  9 12  1  0
 13 11  1  0
 11 14  1  0
 15 12  1  0
 12 16  2  0
 17 13  2  0
 13 18  1  0
 15 19  1  0
 16 17  1  0
 16 20  1  0
 17 21  1  0
 19 22  2  0
 23 19  1  0
 22 24  1  0
 22 25  1  0
 26 23  2  0
 23 27  1  0
 24 28  2  0
 24 29  1  0
 30 26  1  0
 26 28  1  0
 28 31  1  0
 32 30  1  0
 30 33  1  0
 31 34  1  0
 31 32  2  0
 34 35  2  0
 34 36  1  0
 35 37  1  0
 35 38  1  0
 37 39  2  0
 40 37  1  0
 39 41  1  0
 42 40  2  0
 40 43  1  0
 41 44  2  0
 41 45  1  0
 44 42  1  0
 42 46  1  0
 44 47  1  0
M  END
>  <SMILES>  (2) 
O=C(NCO)c1ccccc1Sc1ccc2c(C=Cc3ccccn3)n[nH]c2c1

>  <Molecular Weight>  (2) 
402.5

>  <Substrate_ID>  (2) 
MOL0069

>  <Substrate>  (2) 


>  <Substrate_SMILES>  (2) 
CNC(=O)c1ccccc1Sc1ccc2c(C=Cc3ccccn3)n[nH]c2c1

>  <Reaction>  (2) 
aliphatic hydroxylation

>  <Score>  (2) 
0.3506

>  <Reaction_Score>  (2) 
0.2563

>  <Bond_Score>  (2) 
0.4796

>  <Rank>  (2) 
2

>  <Subtype>  (2) 
REACTION

>  <Subtype_Scores>  (2) 
[REACTION] SOM_score: 0.4796, Reaction_score: 0.2563, Score: 0.3506


$$$$

     RDKit          2D

 43 46  0  0  0  0  0  0  0  0999 V2000
    0.5271    8.0861    0.0000 C   0  0  0  0  0  0  0  0  0 21  0  0
    0.8389    9.5533    0.0000 N   0  0  0  0  0  0  0  0  0  5  0  0
   -0.8995    7.6226    0.0000 C   0  0  0  0  0  0  0  0  0 25  0  0
    1.6418    7.0824    0.0000 O   0  0  0  0  0  0  0  0  0  2  0  0
   -2.0143    8.6263    0.0000 C   0  0  0  0  0  0  0  0  0 18  0  0
   -1.2114    6.1554    0.0000 C   0  0  0  0  0  0  0  0  0 24  0  0
   -3.4408    8.1628    0.0000 C   0  0  0  0  0  0  0  0  0 13  0  0
   -1.7024   10.0935    0.0000 H   0  0  0  0  0  0  0  0  0  0  0  0
   -0.0967    5.1517    0.0000 S   0  0  0  0  0  0  0  0  0  1  0  0
   -2.6380    5.6918    0.0000 C   0  0  0  0  0  0  0  0  0 17  0  0
   -3.7527    6.6955    0.0000 C   0  0  0  0  0  0  0  0  0 12  0  0
   -4.5556    9.1664    0.0000 H   0  0  0  0  0  0  0  0  0  0  0  0
   -0.4086    3.6844    0.0000 C   0  0  0  0  0  0  0  0  0 22  0  0
   -2.9584    4.7613    0.0000 H   0  0  0  0  0  0  0  0  0  0  0  0
   -5.1793    6.2320    0.0000 H   0  0  0  0  0  0  0  0  0  0  0  0
   -1.8351    3.2209    0.0000 C   0  0  0  0  0  0  0  0  0 15  0  0
    0.7062    2.6807    0.0000 C   0  0  0  0  0  0  0  0  0 19  0  0
   -2.1470    1.7537    0.0000 C   0  0  0  0  0  0  0  0  0 20  0  0
   -2.6413    3.7854    0.0000 H   0  0  0  0  0  0  0  0  0  0  0  0
    0.3943    1.2135    0.0000 C   0  0  0  0  0  0  0  0  0 27  0  0
    2.1328    3.1443    0.0000 H   0  0  0  0  0  0  0  0  0  0  0  0
   -1.0323    0.7500    0.0000 C   0  0  0  0  0  0  0  0  0 28  0  0
   -3.5736    1.2902    0.0000 H   0  0  0  0  0  0  0  0  0  0  0  0
    1.2760    0.0000    0.0000 N   0  0  0  0  0  0  0  0  0  6  0  0
   -1.0323   -0.7500    0.0000 C   0  0  0  0  0  0  0  0  0 26  0  0
    0.3943   -1.2135    0.0000 N   0  0  0  0  0  0  0  0  0  4  0  0
    2.7760    0.0000    0.0000 H   0  0  0  0  0  0  0  0  0  0  0  0
   -2.2458   -1.6317    0.0000 C   0  0  0  0  0  0  0  0  0  9  0  0
   -2.0890   -3.1235    0.0000 C   0  0  0  0  0  0  0  0  0  8  0  0
   -3.6161   -1.0216    0.0000 H   0  0  0  0  0  0  0  0  0  0  0  0
   -3.3025   -4.0051    0.0000 C   0  0  0  0  0  0  0  0  0 23  0  0
   -0.7187   -3.7336    0.0000 H   0  0  0  0  0  0  0  0  0  0  0  0
   -4.6729   -3.3950    0.0000 N   0  0  0  0  0  0  0  0  0  3  0  0
   -3.1458   -5.4969    0.0000 C   0  0  0  0  0  0  0  0  0 16  0  0
   -5.8864   -4.2767    0.0000 C   0  0  0  0  0  0  0  0  0 14  0  0
   -4.3593   -6.3786    0.0000 C   0  0  0  0  0  0  0  0  0 11  0  0
   -1.7754   -6.1070    0.0000 H   0  0  0  0  0  0  0  0  0  0  0  0
   -5.7296   -5.7685    0.0000 C   0  0  0  0  0  0  0  0  0 10  0  0
   -7.2567   -3.6666    0.0000 H   0  0  0  0  0  0  0  0  0  0  0  0
   -4.2025   -7.8704    0.0000 H   0  0  0  0  0  0  0  0  0  0  0  0
   -6.9431   -6.6502    0.0000 H   0  0  0  0  0  0  0  0  0  0  0  0
    2.2655   10.0169    0.0000 H   0  0  0  0  0  0  0  0  0  0  0  0
   -0.2758   10.5570    0.0000 H   0  0  0  0  0  0  0  0  0  0  0  0
  1  2  1  0
  3  1  1  0
  1  4  2  0
  5  3  2  0
  3  6  1  0
  7  5  1  0
  5  8  1  0
  9  6  1  0
  6 10  2  0
 11  7  2  0
  7 12  1  0
  9 13  1  0
 10 11  1  0
 10 14  1  0
 11 15  1  0
 13 16  2  0
 17 13  1  0
 16 18  1  0
 16 19  1  0
 20 17  2  0
 17 21  1  0
 18 22  2  0
 18 23  1  0
 24 20  1  0
 20 22  1  0
 22 25  1  0
 26 24  1  0
 24 27  1  0
 25 28  1  0
 25 26  2  0
 28 29  2  0
 28 30  1  0
 29 31  1  0
 29 32  1  0
 31 33  2  0
 34 31  1  0
 33 35  1  0
 36 34  2  0
 34 37  1  0
 35 38  2  0
 35 39  1  0
 38 36  1  0
 36 40  1  0
 38 41  1  0
  2 42  1  0
  2 43  1  0
M  END
>  <SMILES>  (3) 
NC(=O)c1ccccc1Sc1ccc2c(C=Cc3ccccn3)n[nH]c2c1

>  <Molecular Weight>  (3) 
372.5

>  <Substrate_ID>  (3) 
MOL0069

>  <Substrate>  (3) 


>  <Substrate_SMILES>  (3) 
CNC(=O)c1ccccc1Sc1ccc2c(C=Cc3ccccn3)n[nH]c2c1

>  <Reaction>  (3) 
N-demethylation_(R-NHCH3)

>  <Score>  (3) 
0.2713

>  <Reaction_Score>  (3) 
0.2661

>  <Bond_Score>  (3) 
0.2766

>  <Rank>  (3) 
3

>  <Subtype>  (3) 
REACTION

>  <Subtype_Scores>  (3) 
[REACTION] SOM_score: 0.2766, Reaction_score: 0.2661, Score: 0.2713


$$$$
