
     RDKit          2D

 51 54  0  0  0  0  0  0  0  0999 V2000
    1.3299    5.6152    0.0000 C   0  0  0  0  0  0  0  0  0 25  0  0
   -0.0967    5.1517    0.0000 N   0  0  0  0  0  0  0  0  0  9  0  0
   -0.4086    3.6844    0.0000 C   0  0  0  0  0  0  0  0  0 24  0  0
    2.4446    4.6115    0.0000 C   0  0  0  0  0  0  0  0  0 18  0  0
    1.6418    7.0824    0.0000 N   0  0  0  0  0  0  0  0  0  6  0  0
    3.8712    5.0750    0.0000 C   0  0  0  0  0  0  0  0  0 15  0  0
    2.3589    3.6311    0.0000 H   0  0  0  0  0  0  0  0  0  0  0  0
    3.0684    7.5459    0.0000 C   0  0  0  0  0  0  0  0  0 26  0  0
    4.1831    6.5422    0.0000 N   0  0  0  0  0  0  0  0  0  5  0  0
    4.9859    4.0713    0.0000 H   0  0  0  0  0  0  0  0  0  0  0  0
    3.3802    9.0132    0.0000 N   0  0  0  0  0  0  0  0  0  8  0  0
    4.8068    9.4767    0.0000 C   0  0  0  0  0  0  0  0  0 23  0  0
    2.2655   10.0169    0.0000 H   0  0  0  0  0  0  0  0  0  0  0  0
    5.9215    8.4730    0.0000 C   0  0  0  0  0  0  0  0  0 20  0  0
    5.1187   10.9439    0.0000 C   0  0  0  0  0  0  0  0  0 16  0  0
    7.3481    8.9365    0.0000 C   0  0  0  0  0  0  0  0  0 28  0  0
    5.6097    7.0058    0.0000 H   0  0  0  0  0  0  0  0  0  0  0  0
    6.5453   11.4074    0.0000 C   0  0  0  0  0  0  0  0  0 19  0  0
    4.0040   11.9476    0.0000 H   0  0  0  0  0  0  0  0  0  0  0  0
    8.4628    7.9328    0.0000 S   0  0  0  0  0  6  0  0  0  1  0  0
    7.6600   10.4037    0.0000 C   0  0  0  0  0  0  0  0  0 27  0  0
    6.8571   12.8747    0.0000 H   0  0  0  0  0  0  0  0  0  0  0  0
    9.3798    8.7299    0.0000 O   0  0  0  0  0  0  0  0  0  2  0  0
    7.4591    6.8181    0.0000 O   0  0  0  0  0  0  0  0  0  3  0  0
    9.5775    6.9291    0.0000 N   0  0  0  0  0  0  0  0  0  4  0  0
    9.0866   10.8673    0.0000 C   0  0  0  0  0  0  0  0  0 11  0  0
    9.2657    5.4619    0.0000 H   0  0  0  0  0  0  0  0  0  0  0  0
   11.0041    7.3926    0.0000 H   0  0  0  0  0  0  0  0  0  0  0  0
   10.5131   11.3308    0.0000 H   0  0  0  0  0  0  0  0  0  0  0  0
    9.6001    9.7661    0.0000 H   0  0  0  0  0  0  0  0  0  0  0  0
    8.6230   12.2938    0.0000 H   0  0  0  0  0  0  0  0  0  0  0  0
   -1.8351    3.2209    0.0000 C   0  0  0  0  0  0  0  0  0 17  0  0
    0.7062    2.6807    0.0000 C   0  0  0  0  0  0  0  0  0 21  0  0
   -2.1470    1.7537    0.0000 C   0  0  0  0  0  0  0  0  0 22  0  0
   -2.9499    4.2246    0.0000 H   0  0  0  0  0  0  0  0  0  0  0  0
    0.3943    1.2135    0.0000 C   0  0  0  0  0  0  0  0  0 30  0  0
    1.6722    2.8685    0.0000 H   0  0  0  0  0  0  0  0  0  0  0  0
   -1.0323    0.7500    0.0000 C   0  0  0  0  0  0  0  0  0 31  0  0
   -3.5736    1.2902    0.0000 H   0  0  0  0  0  0  0  0  0  0  0  0
    1.2760    0.0000    0.0000 N   0  0  0  0  0  0  0  0  0  7  0  0
   -1.0323   -0.7500    0.0000 C   0  0  0  0  0  0  0  0  0 29  0  0
    0.3943   -1.2135    0.0000 N   0  0  0  0  0  0  0  0  0 10  0  0
   -2.2458   -1.6317    0.0000 C   0  0  0  0  0  0  0  0  0 12  0  0
    0.8578   -2.6401    0.0000 C   0  0  0  0  0  0  0  0  0 14  0  0
   -3.4593   -2.5134    0.0000 H   0  0  0  0  0  0  0  0  0  0  0  0
   -1.5186   -2.9436    0.0000 H   0  0  0  0  0  0  0  0  0  0  0  0
   -3.1275   -0.4182    0.0000 H   0  0  0  0  0  0  0  0  0  0  0  0
    1.3213   -4.0667    0.0000 H   0  0  0  0  0  0  0  0  0  0  0  0
    2.2844   -2.1766    0.0000 H   0  0  0  0  0  0  0  0  0  0  0  0
   -0.5016   -3.2741    0.0000 H   0  0  0  0  0  0  0  0  0  0  0  0
   -1.2114    6.1554    0.0000 H   0  0  0  0  0  0  0  0  0  0  0  0
  1  2  1  0
  2  3  1  0
  4  1  2  0
  1  5  1  0
  6  4  1  0
  4  7  1  0
  5  8  2  0
  9  6  2  0
  6 10  1  0
 11  8  1  0
  8  9  1  0
 12 11  1  0
 11 13  1  0
 14 12  2  0
 12 15  1  0
 16 14  1  0
 14 17  1  0
 15 18  2  0
 15 19  1  0
 20 16  1  0
 21 16  2  0
 18 21  1  0
 18 22  1  0
 20 23  2  0
 20 24  2  0
 20 25  1  0
 21 26  1  0
 25 27  1  0
 25 28  1  0
 26 29  1  0
 26 30  1  0
 26 31  1  0
  3 32  1  0
 33  3  2  0
 32 34  2  0
 32 35  1  0
 36 33  1  0
 33 37  1  0
 34 38  1  0
 34 39  1  0
 40 36  2  0
 36 38  1  0
 38 41  2  0
 42 40  1  0
 41 43  1  0
 41 42  1  0
 42 44  1  0
 43 45  1  0
 43 46  1  0
 43 47  1  0
 44 48  1  0
 44 49  1  0
 44 50  1  0
  2 51  1  0
M  END
>  <SMILES>  (1) 
Cc1ccc(Nc2nccc(Nc3ccc4c(C)n(C)nc4c3)n2)cc1S(N)(=O)=O

>  <Molecular Weight>  (1) 
423.5

>  <Substrate_ID>  (1) 
MOL0026

>  <Substrate>  (1) 


>  <Substrate_SMILES>  (1) 
Cc1ccc(Nc2nccc(N(C)c3ccc4c(C)n(C)nc4c3)n2)cc1S(N)(=O)=O

>  <Reaction>  (1) 
N-demethylation_(R-N(CR)CH3)

>  <Score>  (1) 
0.7121

>  <Reaction_Score>  (1) 
0.7108

>  <Bond_Score>  (1) 
0.7133

>  <Rank>  (1) 
1

>  <Subtype>  (1) 
REACTION

>  <Subtype_Scores>  (1) 
[REACTION] SOM_score: 0.7133, Reaction_score: 0.7108, Score: 0.7121


$$$$

     RDKit          2D

 51 54  0  0  0  0  0  0  0  0999 V2000
   -3.1258   -7.6240    0.0000 N   0  0  0  0  0  0  0  0  0 10  0  0
   -4.6175   -7.4672    0.0000 C   0  0  0  0  0  0  0  0  0 29  0  0
   -2.5156   -6.2537    0.0000 N   0  0  0  0  0  0  0  0  0  7  0  0
   -4.9294   -6.0000    0.0000 C   0  0  0  0  0  0  0  0  0 31  0  0
   -5.6212   -8.5819    0.0000 C   0  0  0  0  0  0  0  0  0 12  0  0
   -3.6304   -5.2500    0.0000 C   0  0  0  0  0  0  0  0  0 30  0  0
   -6.2284   -5.2500    0.0000 C   0  0  0  0  0  0  0  0  0 22  0  0
   -6.6249   -9.6967    0.0000 H   0  0  0  0  0  0  0  0  0  0  0  0
   -4.5065   -9.5856    0.0000 H   0  0  0  0  0  0  0  0  0  0  0  0
   -6.7359   -7.5782    0.0000 H   0  0  0  0  0  0  0  0  0  0  0  0
   -3.6304   -3.7500    0.0000 C   0  0  0  0  0  0  0  0  0 21  0  0
   -6.2284   -3.7500    0.0000 C   0  0  0  0  0  0  0  0  0 17  0  0
   -7.5275   -6.0000    0.0000 H   0  0  0  0  0  0  0  0  0  0  0  0
   -4.9294   -3.0000    0.0000 C   0  0  0  0  0  0  0  0  0 24  0  0
   -2.3313   -3.0000    0.0000 H   0  0  0  0  0  0  0  0  0  0  0  0
   -7.5275   -3.0000    0.0000 H   0  0  0  0  0  0  0  0  0  0  0  0
   -4.9294   -1.5000    0.0000 N   0  0  0  0  0  0  0  0  0  9  0  0
   -6.2284   -0.7500    0.0000 C   0  0  0  0  0  0  0  0  0 25  0  0
   -3.6304   -0.7500    0.0000 C   0  0  0  0  0  0  0  0  0 13  0  0
   -6.2284    0.7500    0.0000 C   0  0  0  0  0  0  0  0  0 18  0  0
   -7.5275   -1.5000    0.0000 N   0  0  0  0  0  0  0  0  0  6  0  0
   -2.3313    0.0000    0.0000 H   0  0  0  0  0  0  0  0  0  0  0  0
   -4.3804    0.5490    0.0000 H   0  0  0  0  0  0  0  0  0  0  0  0
   -2.8804   -2.0490    0.0000 H   0  0  0  0  0  0  0  0  0  0  0  0
   -7.5275    1.5000    0.0000 C   0  0  0  0  0  0  0  0  0 15  0  0
   -4.9294    1.5000    0.0000 H   0  0  0  0  0  0  0  0  0  0  0  0
   -8.8265   -0.7500    0.0000 C   0  0  0  0  0  0  0  0  0 26  0  0
   -8.8265    0.7500    0.0000 N   0  0  0  0  0  0  0  0  0  5  0  0
   -7.5275    3.0000    0.0000 H   0  0  0  0  0  0  0  0  0  0  0  0
  -10.1256   -1.5000    0.0000 N   0  0  0  0  0  0  0  0  0  8  0  0
  -11.4246   -0.7500    0.0000 C   0  0  0  0  0  0  0  0  0 23  0  0
  -10.1256   -3.0000    0.0000 H   0  0  0  0  0  0  0  0  0  0  0  0
  -11.4246    0.7500    0.0000 C   0  0  0  0  0  0  0  0  0 20  0  0
  -12.7236   -1.5000    0.0000 C   0  0  0  0  0  0  0  0  0 16  0  0
  -12.7236    1.5000    0.0000 C   0  0  0  0  0  0  0  0  0 28  0  0
  -10.1256    1.5000    0.0000 H   0  0  0  0  0  0  0  0  0  0  0  0
  -14.0227   -0.7500    0.0000 C   0  0  0  0  0  0  0  0  0 19  0  0
  -12.7236   -3.0000    0.0000 H   0  0  0  0  0  0  0  0  0  0  0  0
  -12.7236    3.0000    0.0000 S   0  0  0  0  0  6  0  0  0  1  0  0
  -14.0227    0.7500    0.0000 C   0  0  0  0  0  0  0  0  0 27  0  0
  -15.3217   -1.5000    0.0000 H   0  0  0  0  0  0  0  0  0  0  0  0
  -13.9296    3.1481    0.0000 O   0  0  0  0  0  0  0  0  0  2  0  0
  -11.2236    3.0000    0.0000 O   0  0  0  0  0  0  0  0  0  3  0  0
  -12.7236    4.5000    0.0000 N   0  0  0  0  0  0  0  0  0  4  0  0
  -15.3217    1.5000    0.0000 C   0  0  0  0  0  0  0  0  0 11  0  0
  -11.4246    5.2500    0.0000 H   0  0  0  0  0  0  0  0  0  0  0  0
  -14.0227    5.2500    0.0000 H   0  0  0  0  0  0  0  0  0  0  0  0
  -16.6207    2.2500    0.0000 H   0  0  0  0  0  0  0  0  0  0  0  0
  -16.0717    0.2010    0.0000 H   0  0  0  0  0  0  0  0  0  0  0  0
  -14.8470    2.6184    0.0000 H   0  0  0  0  0  0  0  0  0  0  0  0
   -2.3758   -8.9231    0.0000 H   0  0  0  0  0  0  0  0  0  0  0  0
  2  1  1  0
  1  3  1  0
  4  2  2  0
  2  5  1  0
  3  6  2  0
  7  4  1  0
  6  4  1  0
  5  8  1  0
  5  9  1  0
  5 10  1  0
  6 11  1  0
 12  7  2  0
  7 13  1  0
 11 14  2  0
 11 15  1  0
 14 12  1  0
 12 16  1  0
 17 14  1  0
 18 17  1  0
 17 19  1  0
 20 18  2  0
 18 21  1  0
 19 22  1  0
 19 23  1  0
 19 24  1  0
 25 20  1  0
 20 26  1  0
 21 27  2  0
 28 25  2  0
 25 29  1  0
 30 27  1  0
 27 28  1  0
 31 30  1  0
 30 32  1  0
 33 31  2  0
 31 34  1  0
 35 33  1  0
 33 36  1  0
 34 37  2  0
 34 38  1  0
 39 35  1  0
 40 35  2  0
 37 40  1  0
 37 41  1  0
 39 42  2  0
 39 43  2  0
 39 44  1  0
 40 45  1  0
 44 46  1  0
 44 47  1  0
 45 48  1  0
 45 49  1  0
 45 50  1  0
  1 51  1  0
M  END
>  <SMILES>  (2) 
Cc1ccc(Nc2nccc(N(C)c3ccc4c(C)[nH]nc4c3)n2)cc1S(N)(=O)=O

>  <Molecular Weight>  (2) 
423.5

>  <Substrate_ID>  (2) 
MOL0026

>  <Substrate>  (2) 


>  <Substrate_SMILES>  (2) 
Cc1ccc(Nc2nccc(N(C)c3ccc4c(C)n(C)nc4c3)n2)cc1S(N)(=O)=O

>  <Reaction>  (2) 
N-demethylation_(nCH3)

>  <Score>  (2) 
0.5324

>  <Reaction_Score>  (2) 
0.5382

>  <Bond_Score>  (2) 
0.5267

>  <Rank>  (2) 
2

>  <Subtype>  (2) 
REACTION

>  <Subtype_Scores>  (2) 
[REACTION] SOM_score: 0.5267, Reaction_score: 0.5382, Score: 0.5324


$$$$

     RDKit          2D

 55 58  0  0  0  0  0  0  0  0999 V2000
   -8.5286    2.0840    0.0000 C   0  0  0  0  0  0  0  0  0 29  0  0
   -9.8990    2.6941    0.0000 C   0  0  0  0  0  0  0  0  0 12  0  0
  -11.2693    3.3042    0.0000 O   0  0  0  0  0  0  0  0  0 32  0  0
   -7.2296    2.8340    0.0000 C   0  0  0  0  0  0  0  0  0 31  0  0
   -8.2168    0.6168    0.0000 N   0  0  0  0  0  0  0  0  0 10  0  0
   -6.9177    4.3013    0.0000 C   0  0  0  0  0  0  0  0  0 22  0  0
   -6.1149    1.8303    0.0000 C   0  0  0  0  0  0  0  0  0 30  0  0
   -9.2205   -0.4979    0.0000 C   0  0  0  0  0  0  0  0  0 14  0  0
   -6.7250    0.4600    0.0000 N   0  0  0  0  0  0  0  0  0  7  0  0
   -5.4912    4.7648    0.0000 C   0  0  0  0  0  0  0  0  0 17  0  0
   -8.0325    5.3050    0.0000 H   0  0  0  0  0  0  0  0  0  0  0  0
   -4.6883    2.2939    0.0000 C   0  0  0  0  0  0  0  0  0 21  0  0
  -10.2242   -1.6126    0.0000 H   0  0  0  0  0  0  0  0  0  0  0  0
   -8.1058   -1.5016    0.0000 H   0  0  0  0  0  0  0  0  0  0  0  0
  -10.4492    0.3624    0.0000 H   0  0  0  0  0  0  0  0  0  0  0  0
   -4.3764    3.7611    0.0000 C   0  0  0  0  0  0  0  0  0 24  0  0
   -5.1793    6.2320    0.0000 H   0  0  0  0  0  0  0  0  0  0  0  0
   -3.5736    1.2902    0.0000 H   0  0  0  0  0  0  0  0  0  0  0  0
   -2.9499    4.2246    0.0000 N   0  0  0  0  0  0  0  0  0  9  0  0
   -2.6380    5.6918    0.0000 C   0  0  0  0  0  0  0  0  0 25  0  0
   -1.8351    3.2209    0.0000 C   0  0  0  0  0  0  0  0  0 13  0  0
   -1.2114    6.1554    0.0000 C   0  0  0  0  0  0  0  0  0 18  0  0
   -3.7527    6.6955    0.0000 N   0  0  0  0  0  0  0  0  0  6  0  0
   -0.7204    2.2172    0.0000 H   0  0  0  0  0  0  0  0  0  0  0  0
   -0.8314    4.3356    0.0000 H   0  0  0  0  0  0  0  0  0  0  0  0
   -2.8388    2.1062    0.0000 H   0  0  0  0  0  0  0  0  0  0  0  0
   -0.8995    7.6226    0.0000 C   0  0  0  0  0  0  0  0  0 15  0  0
   -0.0967    5.1517    0.0000 H   0  0  0  0  0  0  0  0  0  0  0  0
   -3.4408    8.1628    0.0000 C   0  0  0  0  0  0  0  0  0 26  0  0
   -2.0143    8.6263    0.0000 N   0  0  0  0  0  0  0  0  0  5  0  0
    0.5271    8.0861    0.0000 H   0  0  0  0  0  0  0  0  0  0  0  0
   -4.5556    9.1664    0.0000 N   0  0  0  0  0  0  0  0  0  8  0  0
   -4.2437   10.6337    0.0000 C   0  0  0  0  0  0  0  0  0 23  0  0
   -5.9821    8.7029    0.0000 H   0  0  0  0  0  0  0  0  0  0  0  0
   -2.8171   11.0972    0.0000 C   0  0  0  0  0  0  0  0  0 20  0  0
   -5.3584   11.6374    0.0000 C   0  0  0  0  0  0  0  0  0 16  0  0
   -2.5052   12.5644    0.0000 C   0  0  0  0  0  0  0  0  0 28  0  0
   -1.7024   10.0935    0.0000 H   0  0  0  0  0  0  0  0  0  0  0  0
   -5.0465   13.1046    0.0000 C   0  0  0  0  0  0  0  0  0 19  0  0
   -6.7850   11.1738    0.0000 H   0  0  0  0  0  0  0  0  0  0  0  0
   -1.0786   13.0279    0.0000 S   0  0  0  0  0  6  0  0  0  1  0  0
   -3.6200   13.5681    0.0000 C   0  0  0  0  0  0  0  0  0 27  0  0
   -6.1613   14.1083    0.0000 H   0  0  0  0  0  0  0  0  0  0  0  0
   -0.6151   11.6014    0.0000 O   0  0  0  0  0  0  0  0  0  2  0  0
   -1.3104   14.2206    0.0000 O   0  0  0  0  0  0  0  0  0  3  0  0
    0.3479   13.4915    0.0000 N   0  0  0  0  0  0  0  0  0  4  0  0
   -3.3081   15.0353    0.0000 C   0  0  0  0  0  0  0  0  0 11  0  0
    0.6598   14.9587    0.0000 H   0  0  0  0  0  0  0  0  0  0  0  0
    1.4627   12.4878    0.0000 H   0  0  0  0  0  0  0  0  0  0  0  0
   -2.9962   16.5026    0.0000 H   0  0  0  0  0  0  0  0  0  0  0  0
   -4.7753   15.3472    0.0000 H   0  0  0  0  0  0  0  0  0  0  0  0
   -2.0977   14.9295    0.0000 H   0  0  0  0  0  0  0  0  0  0  0  0
  -10.6716    1.4084    0.0000 H   0  0  0  0  0  0  0  0  0  0  0  0
   -9.2889    4.0645    0.0000 H   0  0  0  0  0  0  0  0  0  0  0  0
  -11.4261    4.7960    0.0000 H   0  0  0  0  0  0  0  0  0  0  0  0
  1  2  1  0
  2  3  1  0
  4  1  2  0
  1  5  1  0
  6  4  1  0
  7  4  1  0
  5  8  1  0
  5  9  1  0
 10  6  2  0
  6 11  1  0
  9  7  2  0
  7 12  1  0
  8 13  1  0
  8 14  1  0
  8 15  1  0
 16 10  1  0
 10 17  1  0
 12 16  2  0
 12 18  1  0
 19 16  1  0
 20 19  1  0
 19 21  1  0
 22 20  2  0
 20 23  1  0
 21 24  1  0
 21 25  1  0
 21 26  1  0
 27 22  1  0
 22 28  1  0
 23 29  2  0
 30 27  2  0
 27 31  1  0
 32 29  1  0
 29 30  1  0
 33 32  1  0
 32 34  1  0
 35 33  2  0
 33 36  1  0
 37 35  1  0
 35 38  1  0
 36 39  2  0
 36 40  1  0
 41 37  1  0
 42 37  2  0
 39 42  1  0
 39 43  1  0
 41 44  2  0
 41 45  2  0
 41 46  1  0
 42 47  1  0
 46 48  1  0
 46 49  1  0
 47 50  1  0
 47 51  1  0
 47 52  1  0
  2 53  1  0
  2 54  1  0
  3 55  1  0
M  END
>  <SMILES>  (3) 
Cc1ccc(Nc2nccc(N(C)c3ccc4c(CO)n(C)nc4c3)n2)cc1S(N)(=O)=O

>  <Molecular Weight>  (3) 
453.5

>  <Substrate_ID>  (3) 
MOL0026

>  <Substrate>  (3) 


>  <Substrate_SMILES>  (3) 
Cc1ccc(Nc2nccc(N(C)c3ccc4c(C)n(C)nc4c3)n2)cc1S(N)(=O)=O

>  <Reaction>  (3) 
benzylic_hydroxylation_(c-CH3),aliphatic hydroxylation

>  <Score>  (3) 
0.3843

>  <Reaction_Score>  (3) 
0.397

>  <Bond_Score>  (3) 
0.3721

>  <Rank>  (3) 
3

>  <Subtype>  (3) 
REACTION

>  <Subtype_Scores>  (3) 
[REACTION] SOM_score: 0.3721, Reaction_score: 0.3970, Score: 0.3843


$$$$
