
     RDKit          2D

 45 50  0  0  0  0  0  0  0  0999 V2000
   -2.9499    4.2246    0.0000 C   0  0  0  0  0  0  0  0  0 19  0  0
   -2.6380    5.6918    0.0000 N   0  0  0  0  0  0  0  0  0  6  0  0
   -1.2114    6.1554    0.0000 C   0  0  0  0  0  0  0  0  0 18  0  0
   -4.3764    3.7611    0.0000 O   0  0  0  0  0  0  0  0  0  1  0  0
   -1.8351    3.2209    0.0000 C   0  0  0  0  0  0  0  0  0 29  0  0
   -2.1470    1.7537    0.0000 C   0  0  0  0  0  0  0  0  0 17  0  0
   -0.4086    3.6844    0.0000 N   0  0  0  0  0  0  0  0  0  7  0  0
   -3.0278    2.9891    0.0000 H   0  0  0  0  0  0  0  0  0  0  0  0
   -1.0323    0.7500    0.0000 C   0  0  0  0  0  0  0  0  0 25  0  0
   -2.9419    0.4816    0.0000 H   0  0  0  0  0  0  0  0  0  0  0  0
   -3.3206    2.0681    0.0000 H   0  0  0  0  0  0  0  0  0  0  0  0
   -0.0967    5.1517    0.0000 C   0  0  0  0  0  0  0  0  0 20  0  0
    0.7062    2.6807    0.0000 C   0  0  0  0  0  0  0  0  0 28  0  0
   -1.0323   -0.7500    0.0000 C   0  0  0  0  0  0  0  0  0 27  0  0
    0.3943    1.2135    0.0000 C   0  0  0  0  0  0  0  0  0 24  0  0
    0.5793    5.5741    0.0000 O   0  0  0  0  0  0  0  0  0  2  0  0
    1.5010    3.9528    0.0000 C   0  0  0  0  0  0  0  0  0 21  0  0
    2.0969    2.1188    0.0000 H   0  0  0  0  0  0  0  0  0  0  0  0
   -2.1470   -1.7537    0.0000 C   0  0  0  0  0  0  0  0  0 15  0  0
    0.3943   -1.2135    0.0000 C   0  0  0  0  0  0  0  0  0 26  0  0
    1.2760    0.0000    0.0000 N   0  0  0  0  0  0  0  0  0  5  0  0
    0.7968    5.2772    0.0000 C   0  0  0  0  0  0  0  0  0 11  0  0
    3.0001    3.9005    0.0000 C   0  0  0  0  0  0  0  0  0 13  0  0
   -1.8351   -3.2209    0.0000 C   0  0  0  0  0  0  0  0  0 10  0  0
   -3.5736   -1.2902    0.0000 H   0  0  0  0  0  0  0  0  0  0  0  0
    0.7062   -2.6807    0.0000 C   0  0  0  0  0  0  0  0  0 14  0  0
    2.7760    0.0000    0.0000 H   0  0  0  0  0  0  0  0  0  0  0  0
    1.5917    6.5493    0.0000 C   0  0  0  0  0  0  0  0  0 12  0  0
   -0.6450    5.6908    0.0000 H   0  0  0  0  0  0  0  0  0  0  0  0
    3.7950    5.1725    0.0000 C   0  0  0  0  0  0  0  0  0 23  0  0
    3.7043    2.5760    0.0000 H   0  0  0  0  0  0  0  0  0  0  0  0
   -0.4086   -3.6844    0.0000 C   0  0  0  0  0  0  0  0  0  9  0  0
   -2.9499   -4.2246    0.0000 H   0  0  0  0  0  0  0  0  0  0  0  0
    2.1328   -3.1443    0.0000 H   0  0  0  0  0  0  0  0  0  0  0  0
    3.0908    6.4970    0.0000 C   0  0  0  0  0  0  0  0  0 22  0  0
    0.8875    7.8737    0.0000 H   0  0  0  0  0  0  0  0  0  0  0  0
    5.2722    5.4330    0.0000 O   0  0  0  0  0  0  0  0  0  4  0  0
   -0.0967   -5.1517    0.0000 H   0  0  0  0  0  0  0  0  0  0  0  0
    4.1328    7.5760    0.0000 O   0  0  0  0  0  0  0  0  0  3  0  0
    5.4810    6.9184    0.0000 C   0  0  0  0  0  0  0  0  0 16  0  0
    6.9364    6.5555    0.0000 H   0  0  0  0  0  0  0  0  0  0  0  0
    5.9940    8.3280    0.0000 H   0  0  0  0  0  0  0  0  0  0  0  0
   -1.9156    7.4798    0.0000 H   0  0  0  0  0  0  0  0  0  0  0  0
   -0.0294    7.0789    0.0000 H   0  0  0  0  0  0  0  0  0  0  0  0
   -3.7527    6.6955    0.0000 H   0  0  0  0  0  0  0  0  0  0  0  0
  1  2  1  0
  2  3  1  0
  4  1  2  0
  5  1  1  0
  6  5  1  0
  5  7  1  0
  5  8  1  1
  9  6  1  0
  6 10  1  0
  6 11  1  0
 12  7  1  0
  7 13  1  0
 14  9  1  0
  9 15  2  0
  3 12  1  0
 12 16  2  0
 13 17  1  0
 13 15  1  0
 13 18  1  1
 19 14  2  0
 14 20  1  0
 15 21  1  0
 17 22  2  0
 23 17  1  0
 24 19  1  0
 19 25  1  0
 21 20  1  0
 20 26  2  0
 21 27  1  0
 22 28  1  0
 22 29  1  0
 30 23  2  0
 23 31  1  0
 32 24  2  0
 24 33  1  0
 26 32  1  0
 26 34  1  0
 28 35  2  0
 28 36  1  0
 35 30  1  0
 30 37  1  0
 32 38  1  0
 39 35  1  0
 37 40  1  0
 40 39  1  0
 40 41  1  0
 40 42  1  0
  3 43  1  0
  3 44  1  0
  2 45  1  0
M  END
>  <SMILES>  (1) 
O=C1NCC(=O)N2C1Cc1c([nH]c3ccccc13)C2c1ccc2c(c1)OCO2

>  <Molecular Weight>  (1) 
375.4

>  <Substrate_ID>  (1) 
MOL0050

>  <Substrate>  (1) 


>  <Substrate_SMILES>  (1) 
CN1CC(=O)N2C(Cc3c([nH]c4ccccc34)C2c2ccc3c(c2)OCO3)C1=O

>  <Reaction>  (1) 
N-demethylation_(R-N(CR)CH3),N-demethylation_(tertiary_amine)

>  <Score>  (1) 
0.7964

>  <Reaction_Score>  (1) 
0.8168

>  <Bond_Score>  (1) 
0.7765

>  <Rank>  (1) 
1

>  <Subtype>  (1) 
1A2, 2B6, 2C8, 2C9, 2C19, 2D6, 3A4

>  <Subtype_Scores>  (1) 
[1A2] SOM_score: 0.4548, Reaction_score: 0.8168, Score: 0.6095
[2B6] SOM_score: 0.3333, Reaction_score: 0.8168, Score: 0.5218
[2C8] SOM_score: 0.4579, Reaction_score: 0.8168, Score: 0.6116
[2C9] SOM_score: 0.3736, Reaction_score: 0.8168, Score: 0.5524
[2C19] SOM_score: 0.4717, Reaction_score: 0.8168, Score: 0.6207
[2D6] SOM_score: 0.5259, Reaction_score: 0.8168, Score: 0.6554
[3A4] SOM_score: 0.7765, Reaction_score: 0.8168, Score: 0.7964


$$$$

     RDKit          2D

 47 51  0  0  0  0  0  0  0  0999 V2000
    3.8857    7.7690    0.0000 O   0  0  0  0  0  0  0  0  0  3  0  0
    3.0908    6.4970    0.0000 C   0  0  0  0  0  0  0  0  0 22  0  0
    1.5917    6.5493    0.0000 C   0  0  0  0  0  0  0  0  0 12  0  0
    0.7968    5.2772    0.0000 C   0  0  0  0  0  0  0  0  0 11  0  0
    1.5010    3.9528    0.0000 C   0  0  0  0  0  0  0  0  0 21  0  0
    3.0001    3.9005    0.0000 C   0  0  0  0  0  0  0  0  0 13  0  0
    3.7950    5.1725    0.0000 C   0  0  0  0  0  0  0  0  0 23  0  0
    5.2941    5.1202    0.0000 O   0  0  0  0  0  0  0  0  0  4  0  0
    0.8875    7.8737    0.0000 H   0  0  0  0  0  0  0  0  0  0  0  0
    0.0306    5.4970    0.0000 H   0  0  0  0  0  0  0  0  0  0  0  0
    0.7062    2.6807    0.0000 C   0  0  0  0  0  0  0  0  0 28  0  0
   -0.4086    3.6844    0.0000 N   0  0  0  0  0  0  0  0  0  7  0  0
    0.3943    1.2135    0.0000 C   0  0  0  0  0  0  0  0  0 24  0  0
    2.0969    2.1188    0.0000 H   0  0  0  0  0  0  0  0  0  0  0  0
   -0.0967    5.1517    0.0000 C   0  0  0  0  0  0  0  0  0 20  0  0
   -1.8351    3.2209    0.0000 C   0  0  0  0  0  0  0  0  0 29  0  0
    1.2760    0.0000    0.0000 N   0  0  0  0  0  0  0  0  0  5  0  0
   -1.0323    0.7500    0.0000 C   0  0  0  0  0  0  0  0  0 25  0  0
   -1.2114    6.1554    0.0000 C   0  0  0  0  0  0  0  0  0 18  0  0
    1.1753    5.9466    0.0000 O   0  0  0  0  0  0  0  0  0  2  0  0
   -2.1470    1.7537    0.0000 C   0  0  0  0  0  0  0  0  0 17  0  0
   -2.9499    4.2246    0.0000 C   0  0  0  0  0  0  0  0  0 19  0  0
   -3.3076    2.9347    0.0000 H   0  0  0  0  0  0  0  0  0  0  0  0
    0.3943   -1.2135    0.0000 C   0  0  0  0  0  0  0  0  0 26  0  0
    2.7760    0.0000    0.0000 H   0  0  0  0  0  0  0  0  0  0  0  0
   -1.0323   -0.7500    0.0000 C   0  0  0  0  0  0  0  0  0 27  0  0
   -2.6380    5.6918    0.0000 N   0  0  0  0  0  0  0  0  0  6  0  0
   -1.7489    7.5557    0.0000 H   0  0  0  0  0  0  0  0  0  0  0  0
   -0.0294    7.0789    0.0000 H   0  0  0  0  0  0  0  0  0  0  0  0
   -2.9419    0.4816    0.0000 H   0  0  0  0  0  0  0  0  0  0  0  0
   -3.5959    2.1419    0.0000 H   0  0  0  0  0  0  0  0  0  0  0  0
   -4.3764    3.7611    0.0000 O   0  0  0  0  0  0  0  0  0  1  0  0
    0.7062   -2.6807    0.0000 C   0  0  0  0  0  0  0  0  0 14  0  0
   -2.1470   -1.7537    0.0000 C   0  0  0  0  0  0  0  0  0 15  0  0
   -3.7527    6.6955    0.0000 C   0  0  0  0  0  0  0  0  0  8  0  0
   -0.4086   -3.6844    0.0000 C   0  0  0  0  0  0  0  0  0  9  0  0
    2.1328   -3.1443    0.0000 H   0  0  0  0  0  0  0  0  0  0  0  0
   -1.8351   -3.2209    0.0000 C   0  0  0  0  0  0  0  0  0 10  0  0
   -3.5736   -1.2902    0.0000 H   0  0  0  0  0  0  0  0  0  0  0  0
   -4.8674    7.6992    0.0000 H   0  0  0  0  0  0  0  0  0  0  0  0
   -2.8924    7.9243    0.0000 H   0  0  0  0  0  0  0  0  0  0  0  0
   -4.7564    5.5808    0.0000 H   0  0  0  0  0  0  0  0  0  0  0  0
   -0.0967   -5.1517    0.0000 H   0  0  0  0  0  0  0  0  0  0  0  0
   -2.9499   -4.2246    0.0000 H   0  0  0  0  0  0  0  0  0  0  0  0
    3.7043    2.5760    0.0000 H   0  0  0  0  0  0  0  0  0  0  0  0
    3.1815    9.0935    0.0000 H   0  0  0  0  0  0  0  0  0  0  0  0
    6.0890    6.3923    0.0000 H   0  0  0  0  0  0  0  0  0  0  0  0
  1  2  1  0
  2  3  2  0
  3  4  1  0
  4  5  2  0
  5  6  1  0
  6  7  2  0
  7  8  1  0
  7  2  1  0
  3  9  1  0
  4 10  1  0
 11  5  1  0
 12 11  1  0
 11 13  1  0
 11 14  1  1
 15 12  1  0
 16 12  1  0
 13 17  1  0
 18 13  2  0
 19 15  1  0
 15 20  2  0
 21 16  1  0
 16 22  1  0
 16 23  1  1
 17 24  1  0
 17 25  1  0
 26 18  1  0
 18 21  1  0
 27 19  1  0
 19 28  1  0
 19 29  1  0
 21 30  1  0
 21 31  1  0
 32 22  2  0
 22 27  1  0
 24 33  1  0
 26 24  2  0
 34 26  1  0
 27 35  1  0
 33 36  2  0
 33 37  1  0
 38 34  2  0
 34 39  1  0
 35 40  1  0
 35 41  1  0
 35 42  1  0
 36 38  1  0
 36 43  1  0
 38 44  1  0
  6 45  1  0
  1 46  1  0
  8 47  1  0
M  END
>  <SMILES>  (2) 
CN1CC(=O)N2C(Cc3c([nH]c4ccccc34)C2c2ccc(O)c(O)c2)C1=O

>  <Molecular Weight>  (2) 
377.4

>  <Substrate_ID>  (2) 
MOL0050

>  <Substrate>  (2) 


>  <Substrate_SMILES>  (2) 
CN1CC(=O)N2C(Cc3c([nH]c4ccccc34)C2c2ccc3c(c2)OCO3)C1=O

>  <Reaction>  (2) 
O-dealkylation_(methylenedioxyphenyl)a

>  <Score>  (2) 
0.7945

>  <Reaction_Score>  (2) 
0.8175

>  <Bond_Score>  (2) 
0.7721

>  <Rank>  (2) 
2

>  <Subtype>  (2) 
1A2, 2B6, 2C8, 2C9, 2C19, 2D6, 3A4

>  <Subtype_Scores>  (2) 
[1A2] SOM_score: 0.6082, Reaction_score: 0.8175, Score: 0.7051
[2B6] SOM_score: 0.3739, Reaction_score: 0.8175, Score: 0.5528
[2C8] SOM_score: 0.5586, Reaction_score: 0.8175, Score: 0.6757
[2C9] SOM_score: 0.4113, Reaction_score: 0.8175, Score: 0.5798
[2C19] SOM_score: 0.6307, Reaction_score: 0.8175, Score: 0.7181
[2D6] SOM_score: 0.6362, Reaction_score: 0.8175, Score: 0.7212
[3A4] SOM_score: 0.7721, Reaction_score: 0.8175, Score: 0.7945


$$$$

     RDKit          2D

 49 54  0  0  0  0  0  0  0  0999 V2000
   -1.0323    0.7500    0.0000 C   0  0  0  0  0  0  0  0  0 25  0  0
   -1.0323   -0.7500    0.0000 C   0  0  0  0  0  0  0  0  0 27  0  0
    0.3943   -1.2135    0.0000 C   0  0  0  0  0  0  0  0  0 26  0  0
    0.7062   -2.6807    0.0000 C   0  0  0  0  0  0  0  0  0 14  0  0
   -0.4086   -3.6844    0.0000 C   0  0  0  0  0  0  0  0  0  9  0  0
   -0.0967   -5.1517    0.0000 O   0  0  0  0  0  0  0  0  0 30  0  0
   -1.8351   -3.2209    0.0000 C   0  0  0  0  0  0  0  0  0 10  0  0
   -2.1470   -1.7537    0.0000 C   0  0  0  0  0  0  0  0  0 15  0  0
   -2.1470    1.7537    0.0000 C   0  0  0  0  0  0  0  0  0 17  0  0
    0.3943    1.2135    0.0000 C   0  0  0  0  0  0  0  0  0 24  0  0
   -1.8351    3.2209    0.0000 C   0  0  0  0  0  0  0  0  0 29  0  0
   -3.3206    2.0681    0.0000 H   0  0  0  0  0  0  0  0  0  0  0  0
   -2.9419    0.4816    0.0000 H   0  0  0  0  0  0  0  0  0  0  0  0
    0.7062    2.6807    0.0000 C   0  0  0  0  0  0  0  0  0 28  0  0
    1.2760    0.0000    0.0000 N   0  0  0  0  0  0  0  0  0  5  0  0
   -2.9499    4.2246    0.0000 C   0  0  0  0  0  0  0  0  0 19  0  0
   -0.4086    3.6844    0.0000 N   0  0  0  0  0  0  0  0  0  7  0  0
   -3.0278    2.9891    0.0000 H   0  0  0  0  0  0  0  0  0  0  0  0
    2.0969    2.1188    0.0000 C   0  0  0  0  0  0  0  0  0 21  0  0
    1.5010    3.9528    0.0000 H   0  0  0  0  0  0  0  0  0  0  0  0
    2.7314   -0.3630    0.0000 H   0  0  0  0  0  0  0  0  0  0  0  0
   -4.3764    3.7611    0.0000 O   0  0  0  0  0  0  0  0  0  1  0  0
   -2.6380    5.6918    0.0000 N   0  0  0  0  0  0  0  0  0  6  0  0
   -0.0967    5.1517    0.0000 C   0  0  0  0  0  0  0  0  0 20  0  0
    2.3057    0.6334    0.0000 C   0  0  0  0  0  0  0  0  0 11  0  0
    3.2790    3.0423    0.0000 C   0  0  0  0  0  0  0  0  0 13  0  0
   -3.7527    6.6955    0.0000 C   0  0  0  0  0  0  0  0  0  8  0  0
   -1.2114    6.1554    0.0000 C   0  0  0  0  0  0  0  0  0 18  0  0
    1.3299    5.6152    0.0000 O   0  0  0  0  0  0  0  0  0  2  0  0
    3.6965    0.0715    0.0000 C   0  0  0  0  0  0  0  0  0 12  0  0
    1.8150    0.0052    0.0000 H   0  0  0  0  0  0  0  0  0  0  0  0
    4.6697    2.4804    0.0000 C   0  0  0  0  0  0  0  0  0 23  0  0
    3.0702    4.5277    0.0000 H   0  0  0  0  0  0  0  0  0  0  0  0
   -4.8674    7.6992    0.0000 H   0  0  0  0  0  0  0  0  0  0  0  0
   -2.8924    7.9243    0.0000 H   0  0  0  0  0  0  0  0  0  0  0  0
   -4.7564    5.5808    0.0000 H   0  0  0  0  0  0  0  0  0  0  0  0
   -0.0294    7.0789    0.0000 H   0  0  0  0  0  0  0  0  0  0  0  0
   -1.7489    7.5557    0.0000 H   0  0  0  0  0  0  0  0  0  0  0  0
    4.8785    0.9950    0.0000 C   0  0  0  0  0  0  0  0  0 22  0  0
    3.9052   -1.4139    0.0000 H   0  0  0  0  0  0  0  0  0  0  0  0
    6.0179    3.1380    0.0000 O   0  0  0  0  0  0  0  0  0  4  0  0
    6.3557    0.7345    0.0000 O   0  0  0  0  0  0  0  0  0  3  0  0
    7.0599    2.0590    0.0000 C   0  0  0  0  0  0  0  0  0 16  0  0
    8.0241    3.2080    0.0000 H   0  0  0  0  0  0  0  0  0  0  0  0
    8.3035    1.2202    0.0000 H   0  0  0  0  0  0  0  0  0  0  0  0
    2.1328   -3.1443    0.0000 H   0  0  0  0  0  0  0  0  0  0  0  0
   -2.9499   -4.2246    0.0000 H   0  0  0  0  0  0  0  0  0  0  0  0
   -3.5736   -1.2902    0.0000 H   0  0  0  0  0  0  0  0  0  0  0  0
   -1.2114   -6.1554    0.0000 H   0  0  0  0  0  0  0  0  0  0  0  0
  1  2  1  0
  2  3  1  0
  3  4  2  0
  4  5  1  0
  5  6  1  0
  5  7  2  0
  7  8  1  0
  8  2  2  0
  1  9  1  0
  1 10  2  0
  9 11  1  0
  9 12  1  0
  9 13  1  0
 14 10  1  0
 10 15  1  0
 11 16  1  0
 11 17  1  0
 11 18  1  1
 17 14  1  0
 14 19  1  0
 14 20  1  1
 15  3  1  0
 15 21  1  0
 22 16  2  0
 16 23  1  0
 24 17  1  0
 19 25  2  0
 26 19  1  0
 23 27  1  0
 23 28  1  0
 28 24  1  0
 24 29  2  0
 25 30  1  0
 25 31  1  0
 32 26  2  0
 26 33  1  0
 27 34  1  0
 27 35  1  0
 27 36  1  0
 28 37  1  0
 28 38  1  0
 30 39  2  0
 30 40  1  0
 39 32  1  0
 32 41  1  0
 42 39  1  0
 41 43  1  0
 43 42  1  0
 43 44  1  0
 43 45  1  0
  4 46  1  0
  7 47  1  0
  8 48  1  0
  6 49  1  0
M  END
>  <SMILES>  (3) 
CN1CC(=O)N2C(Cc3c([nH]c4cc(O)ccc34)C2c2ccc3c(c2)OCO3)C1=O

>  <Molecular Weight>  (3) 
405.4

>  <Substrate_ID>  (3) 
MOL0050

>  <Substrate>  (3) 


>  <Substrate_SMILES>  (3) 
CN1CC(=O)N2C(Cc3c([nH]c4ccccc34)C2c2ccc3c(c2)OCO3)C1=O

>  <Reaction>  (3) 
aromatic_hydroxylation_(para_to_carbon),aromatic hydroxylation

>  <Score>  (3) 
0.3259

>  <Reaction_Score>  (3) 
0.3392

>  <Bond_Score>  (3) 
0.313

>  <Rank>  (3) 
3

>  <Subtype>  (3) 
1A2, 2C8, 2C9, 2D6, 3A4

>  <Subtype_Scores>  (3) 
[1A2] SOM_score: 0.2853, Reaction_score: 0.3392, Score: 0.3111
[2C8] SOM_score: 0.2075, Reaction_score: 0.3392, Score: 0.2653
[2C9] SOM_score: 0.3130, Reaction_score: 0.3392, Score: 0.3259
[2D6] SOM_score: 0.2352, Reaction_score: 0.3392, Score: 0.2825
[3A4] SOM_score: 0.3064, Reaction_score: 0.3392, Score: 0.3224


$$$$

     RDKit          2D

 49 54  0  0  0  0  0  0  0  0999 V2000
    1.2760    0.0000    0.0000 N   0  0  0  0  0  0  0  0  0  5  0  0
    0.3943    1.2135    0.0000 C   0  0  0  0  0  0  0  0  0 26  0  0
   -1.0323    0.7500    0.0000 C   0  0  0  0  0  0  0  0  0 27  0  0
   -2.1470    1.7537    0.0000 C   0  0  0  0  0  0  0  0  0 15  0  0
   -1.8351    3.2209    0.0000 C   0  0  0  0  0  0  0  0  0 10  0  0
   -2.9499    4.2246    0.0000 O   0  0  0  0  0  0  0  0  0 30  0  0
   -0.4086    3.6844    0.0000 C   0  0  0  0  0  0  0  0  0  9  0  0
    0.7062    2.6807    0.0000 C   0  0  0  0  0  0  0  0  0 14  0  0
    0.3943   -1.2135    0.0000 C   0  0  0  0  0  0  0  0  0 24  0  0
    2.7314    0.3630    0.0000 H   0  0  0  0  0  0  0  0  0  0  0  0
    0.7062   -2.6807    0.0000 C   0  0  0  0  0  0  0  0  0 28  0  0
   -1.0323   -0.7500    0.0000 C   0  0  0  0  0  0  0  0  0 25  0  0
   -0.4086   -3.6844    0.0000 N   0  0  0  0  0  0  0  0  0  7  0  0
    2.0969   -2.1188    0.0000 C   0  0  0  0  0  0  0  0  0 21  0  0
    1.5010   -3.9528    0.0000 H   0  0  0  0  0  0  0  0  0  0  0  0
   -2.1470   -1.7537    0.0000 C   0  0  0  0  0  0  0  0  0 17  0  0
   -0.0967   -5.1517    0.0000 C   0  0  0  0  0  0  0  0  0 20  0  0
   -1.8351   -3.2209    0.0000 C   0  0  0  0  0  0  0  0  0 29  0  0
    2.3057   -0.6334    0.0000 C   0  0  0  0  0  0  0  0  0 11  0  0
    3.2790   -3.0423    0.0000 C   0  0  0  0  0  0  0  0  0 13  0  0
   -3.3206   -2.0681    0.0000 H   0  0  0  0  0  0  0  0  0  0  0  0
   -2.9419   -0.4816    0.0000 H   0  0  0  0  0  0  0  0  0  0  0  0
   -1.2114   -6.1554    0.0000 C   0  0  0  0  0  0  0  0  0 18  0  0
    1.3299   -5.6152    0.0000 O   0  0  0  0  0  0  0  0  0  2  0  0
   -2.9499   -4.2246    0.0000 C   0  0  0  0  0  0  0  0  0 19  0  0
   -3.0278   -2.9891    0.0000 H   0  0  0  0  0  0  0  0  0  0  0  0
    3.6965   -0.0715    0.0000 C   0  0  0  0  0  0  0  0  0 12  0  0
    1.8150   -0.0052    0.0000 H   0  0  0  0  0  0  0  0  0  0  0  0
    4.6697   -2.4804    0.0000 C   0  0  0  0  0  0  0  0  0 23  0  0
    3.0702   -4.5277    0.0000 H   0  0  0  0  0  0  0  0  0  0  0  0
   -2.6380   -5.6918    0.0000 N   0  0  0  0  0  0  0  0  0  6  0  0
   -1.7489   -7.5557    0.0000 H   0  0  0  0  0  0  0  0  0  0  0  0
   -0.0294   -7.0789    0.0000 H   0  0  0  0  0  0  0  0  0  0  0  0
   -4.3764   -3.7611    0.0000 O   0  0  0  0  0  0  0  0  0  1  0  0
    4.8785   -0.9950    0.0000 C   0  0  0  0  0  0  0  0  0 22  0  0
    3.9052    1.4139    0.0000 H   0  0  0  0  0  0  0  0  0  0  0  0
    6.0179   -3.1380    0.0000 O   0  0  0  0  0  0  0  0  0  4  0  0
   -3.7527   -6.6955    0.0000 C   0  0  0  0  0  0  0  0  0  8  0  0
    6.3557   -0.7345    0.0000 O   0  0  0  0  0  0  0  0  0  3  0  0
    7.0599   -2.0590    0.0000 C   0  0  0  0  0  0  0  0  0 16  0  0
   -4.8674   -7.6992    0.0000 H   0  0  0  0  0  0  0  0  0  0  0  0
   -4.7564   -5.5808    0.0000 H   0  0  0  0  0  0  0  0  0  0  0  0
   -2.8924   -7.9243    0.0000 H   0  0  0  0  0  0  0  0  0  0  0  0
    8.0241   -3.2080    0.0000 H   0  0  0  0  0  0  0  0  0  0  0  0
    8.3035   -1.2202    0.0000 H   0  0  0  0  0  0  0  0  0  0  0  0
   -3.5736    1.2902    0.0000 H   0  0  0  0  0  0  0  0  0  0  0  0
   -0.0967    5.1517    0.0000 H   0  0  0  0  0  0  0  0  0  0  0  0
    2.1328    3.1443    0.0000 H   0  0  0  0  0  0  0  0  0  0  0  0
   -2.6380    5.6918    0.0000 H   0  0  0  0  0  0  0  0  0  0  0  0
  1  2  1  0
  2  3  2  0
  3  4  1  0
  4  5  2  0
  5  6  1  0
  5  7  1  0
  7  8  2  0
  8  2  1  0
  9  1  1  0
  1 10  1  0
 11  9  1  0
 12  9  2  0
 13 11  1  0
 11 14  1  0
 11 15  1  6
  3 12  1  0
 12 16  1  0
 17 13  1  0
 18 13  1  0
 14 19  2  0
 20 14  1  0
 16 18  1  0
 16 21  1  0
 16 22  1  0
 23 17  1  0
 17 24  2  0
 18 25  1  0
 18 26  1  6
 19 27  1  0
 19 28  1  0
 29 20  2  0
 20 30  1  0
 31 23  1  0
 23 32  1  0
 23 33  1  0
 34 25  2  0
 25 31  1  0
 27 35  2  0
 27 36  1  0
 35 29  1  0
 29 37  1  0
 31 38  1  0
 39 35  1  0
 37 40  1  0
 38 41  1  0
 38 42  1  0
 38 43  1  0
 40 39  1  0
 40 44  1  0
 40 45  1  0
  4 46  1  0
  7 47  1  0
  8 48  1  0
  6 49  1  0
M  END
>  <SMILES>  (4) 
CN1CC(=O)N2C(Cc3c([nH]c4ccc(O)cc34)C2c2ccc3c(c2)OCO3)C1=O

>  <Molecular Weight>  (4) 
405.4

>  <Substrate_ID>  (4) 
MOL0050

>  <Substrate>  (4) 


>  <Substrate_SMILES>  (4) 
CN1CC(=O)N2C(Cc3c([nH]c4ccccc34)C2c2ccc3c(c2)OCO3)C1=O

>  <Reaction>  (4) 
aromatic_hydroxylation_(para_to_nitrogen),aromatic hydroxylation

>  <Score>  (4) 
0.3212

>  <Reaction_Score>  (4) 
0.3358

>  <Bond_Score>  (4) 
0.3073

>  <Rank>  (4) 
4

>  <Subtype>  (4) 
1A2, 2C8, 2C9, 2D6, 3A4

>  <Subtype_Scores>  (4) 
[1A2] SOM_score: 0.2833, Reaction_score: 0.3358, Score: 0.3085
[2C8] SOM_score: 0.2042, Reaction_score: 0.3358, Score: 0.2618
[2C9] SOM_score: 0.3073, Reaction_score: 0.3358, Score: 0.3212
[2D6] SOM_score: 0.2326, Reaction_score: 0.3358, Score: 0.2795
[3A4] SOM_score: 0.3019, Reaction_score: 0.3358, Score: 0.3184


$$$$

     RDKit          2D

 49 54  0  0  0  0  0  0  0  0999 V2000
   -1.2114    6.1554    0.0000 C   0  0  0  0  0  0  0  0  0 18  0  0
   -0.0294    7.0789    0.0000 O   0  0  0  0  0  0  0  0  0 30  0  0
   -0.2381    8.5643    0.0000 H   0  0  0  0  0  0  0  0  0  0  0  0
   -2.6380    5.6918    0.0000 N   0  0  0  0  0  0  0  0  0  6  0  0
   -0.0967    5.1517    0.0000 C   0  0  0  0  0  0  0  0  0 20  0  0
   -1.7489    7.5557    0.0000 H   0  0  0  0  0  0  0  0  0  0  0  0
   -2.9499    4.2246    0.0000 C   0  0  0  0  0  0  0  0  0 19  0  0
   -3.7527    6.6955    0.0000 C   0  0  0  0  0  0  0  0  0  8  0  0
    0.5793    5.5741    0.0000 O   0  0  0  0  0  0  0  0  0  2  0  0
   -0.4086    3.6844    0.0000 N   0  0  0  0  0  0  0  0  0  7  0  0
   -4.3764    3.7611    0.0000 O   0  0  0  0  0  0  0  0  0  1  0  0
   -1.8351    3.2209    0.0000 C   0  0  0  0  0  0  0  0  0 29  0  0
   -4.8674    7.6992    0.0000 H   0  0  0  0  0  0  0  0  0  0  0  0
   -2.8924    7.9243    0.0000 H   0  0  0  0  0  0  0  0  0  0  0  0
   -4.7564    5.5808    0.0000 H   0  0  0  0  0  0  0  0  0  0  0  0
    0.7062    2.6807    0.0000 C   0  0  0  0  0  0  0  0  0 28  0  0
   -2.1470    1.7537    0.0000 C   0  0  0  0  0  0  0  0  0 17  0  0
   -3.0278    2.9891    0.0000 H   0  0  0  0  0  0  0  0  0  0  0  0
    1.5010    3.9528    0.0000 C   0  0  0  0  0  0  0  0  0 21  0  0
    0.3943    1.2135    0.0000 C   0  0  0  0  0  0  0  0  0 24  0  0
    2.0969    2.1188    0.0000 H   0  0  0  0  0  0  0  0  0  0  0  0
   -1.0323    0.7500    0.0000 C   0  0  0  0  0  0  0  0  0 25  0  0
   -2.9419    0.4816    0.0000 H   0  0  0  0  0  0  0  0  0  0  0  0
   -3.3206    2.0681    0.0000 H   0  0  0  0  0  0  0  0  0  0  0  0
    0.7968    5.2772    0.0000 C   0  0  0  0  0  0  0  0  0 11  0  0
    3.0001    3.9005    0.0000 C   0  0  0  0  0  0  0  0  0 13  0  0
    1.2760    0.0000    0.0000 N   0  0  0  0  0  0  0  0  0  5  0  0
   -1.0323   -0.7500    0.0000 C   0  0  0  0  0  0  0  0  0 27  0  0
    1.5917    6.5493    0.0000 C   0  0  0  0  0  0  0  0  0 12  0  0
   -0.6450    5.6908    0.0000 H   0  0  0  0  0  0  0  0  0  0  0  0
    3.7950    5.1725    0.0000 C   0  0  0  0  0  0  0  0  0 23  0  0
    3.7043    2.5760    0.0000 H   0  0  0  0  0  0  0  0  0  0  0  0
    0.3943   -1.2135    0.0000 C   0  0  0  0  0  0  0  0  0 26  0  0
    2.7760    0.0000    0.0000 H   0  0  0  0  0  0  0  0  0  0  0  0
   -2.1470   -1.7537    0.0000 C   0  0  0  0  0  0  0  0  0 15  0  0
    3.0908    6.4970    0.0000 C   0  0  0  0  0  0  0  0  0 22  0  0
    0.8875    7.8737    0.0000 H   0  0  0  0  0  0  0  0  0  0  0  0
    5.2722    5.4330    0.0000 O   0  0  0  0  0  0  0  0  0  4  0  0
    0.7062   -2.6807    0.0000 C   0  0  0  0  0  0  0  0  0 14  0  0
   -1.8351   -3.2209    0.0000 C   0  0  0  0  0  0  0  0  0 10  0  0
   -3.5736   -1.2902    0.0000 H   0  0  0  0  0  0  0  0  0  0  0  0
    4.1328    7.5760    0.0000 O   0  0  0  0  0  0  0  0  0  3  0  0
    5.4810    6.9184    0.0000 C   0  0  0  0  0  0  0  0  0 16  0  0
   -0.4086   -3.6844    0.0000 C   0  0  0  0  0  0  0  0  0  9  0  0
    2.1328   -3.1443    0.0000 H   0  0  0  0  0  0  0  0  0  0  0  0
   -2.9499   -4.2246    0.0000 H   0  0  0  0  0  0  0  0  0  0  0  0
    6.9364    6.5555    0.0000 H   0  0  0  0  0  0  0  0  0  0  0  0
    5.9940    8.3280    0.0000 H   0  0  0  0  0  0  0  0  0  0  0  0
   -0.0967   -5.1517    0.0000 H   0  0  0  0  0  0  0  0  0  0  0  0
  1  2  1  0
  2  3  1  0
  4  1  1  0
  1  5  1  0
  1  6  1  0
  7  4  1  0
  4  8  1  0
  5  9  2  0
  5 10  1  0
 11  7  2  0
 12  7  1  0
  8 13  1  0
  8 14  1  0
  8 15  1  0
 10 16  1  0
 12 10  1  0
 17 12  1  0
 12 18  1  1
 16 19  1  0
 16 20  1  0
 16 21  1  1
 22 17  1  0
 17 23  1  0
 17 24  1  0
 19 25  2  0
 26 19  1  0
 20 27  1  0
 22 20  2  0
 28 22  1  0
 25 29  1  0
 25 30  1  0
 31 26  2  0
 26 32  1  0
 27 33  1  0
 27 34  1  0
 35 28  2  0
 28 33  1  0
 29 36  2  0
 29 37  1  0
 36 31  1  0
 31 38  1  0
 33 39  2  0
 40 35  1  0
 35 41  1  0
 42 36  1  0
 38 43  1  0
 39 44  1  0
 39 45  1  0
 44 40  2  0
 40 46  1  0
 43 42  1  0
 43 47  1  0
 43 48  1  0
 44 49  1  0
M  END
>  <SMILES>  (5) 
CN1C(=O)C2Cc3c([nH]c4ccccc34)C(c3ccc4c(c3)OCO4)N2C(=O)C1O

>  <Molecular Weight>  (5) 
405.4

>  <Substrate_ID>  (5) 
MOL0050

>  <Substrate>  (5) 


>  <Substrate_SMILES>  (5) 
CN1CC(=O)N2C(Cc3c([nH]c4ccccc34)C2c2ccc3c(c2)OCO3)C1=O

>  <Reaction>  (5) 
aliphatic hydroxylation

>  <Score>  (5) 
0.227

>  <Reaction_Score>  (5) 
0.2029

>  <Bond_Score>  (5) 
0.254

>  <Rank>  (5) 
5

>  <Subtype>  (5) 
3A4

>  <Subtype_Scores>  (5) 
[3A4] SOM_score: 0.2540, Reaction_score: 0.2029, Score: 0.2270


$$$$
