
     RDKit          2D

 46 49  0  0  0  0  0  0  0  0999 V2000
    0.5271    8.0861    0.0000 C   0  0  0  0  0  0  0  0  0 16  0  0
    0.8389    9.5533    0.0000 O   0  0  0  0  0  0  0  0  0  2  0  0
   -0.8995    7.6226    0.0000 C   0  0  0  0  0  0  0  0  0 15  0  0
    1.6418    7.0824    0.0000 C   0  0  0  0  0  0  0  0  0 18  0  0
   -1.2114    6.1554    0.0000 C   0  0  0  0  0  0  0  0  0 14  0  0
   -2.0143    8.6263    0.0000 H   0  0  0  0  0  0  0  0  0  0  0  0
    1.3299    5.6152    0.0000 C   0  0  0  0  0  0  0  0  0 12  0  0
    3.0684    7.5459    0.0000 H   0  0  0  0  0  0  0  0  0  0  0  0
   -0.0967    5.1517    0.0000 C   0  0  0  0  0  0  0  0  0 13  0  0
   -2.6380    5.6918    0.0000 H   0  0  0  0  0  0  0  0  0  0  0  0
    2.4446    4.6115    0.0000 C   0  0  0  0  0  0  0  0  0 11  0  0
   -0.4086    3.6844    0.0000 C   0  0  0  0  0  0  0  0  0 19  0  0
    2.1328    3.1443    0.0000 C   0  0  0  0  0  0  0  0  0 10  0  0
    3.8354    4.0496    0.0000 H   0  0  0  0  0  0  0  0  0  0  0  0
    3.2395    5.8836    0.0000 H   0  0  0  0  0  0  0  0  0  0  0  0
   -1.8351    3.2209    0.0000 C   0  0  0  0  0  0  0  0  0 20  0  0
    0.7062    2.6807    0.0000 C   0  0  0  0  0  0  0  0  0  9  0  0
   -1.2056    4.6014    0.0000 H   0  0  0  0  0  0  0  0  0  0  0  0
    2.6385    1.8926    0.0000 H   0  0  0  0  0  0  0  0  0  0  0  0
    3.6318    3.0919    0.0000 H   0  0  0  0  0  0  0  0  0  0  0  0
   -2.1470    1.7537    0.0000 C   0  0  0  0  0  0  0  0  0 21  0  0
   -3.3342    3.2733    0.0000 H   0  0  0  0  0  0  0  0  0  0  0  0
   -2.1496    4.3945    0.0000 H   0  0  0  0  0  0  0  0  0  0  0  0
    0.3943    1.2135    0.0000 C   0  0  0  0  0  0  0  0  0  8  0  0
    1.7094    1.7774    0.0000 H   0  0  0  0  0  0  0  0  0  0  0  0
   -1.0323    0.7500    0.0000 C   0  0  0  0  0  0  0  0  0 22  0  0
   -2.7205    1.2000    0.0000 H   0  0  0  0  0  0  0  0  0  0  0  0
   -3.5378    2.3156    0.0000 H   0  0  0  0  0  0  0  0  0  0  0  0
    1.2760    0.0000    0.0000 C   0  0  0  0  0  0  0  0  0  7  0  0
   -0.8192    2.0952    0.0000 H   0  0  0  0  0  0  0  0  0  0  0  0
   -2.4026    0.1399    0.0000 C   0  0  0  0  0  0  0  0  0 23  0  0
   -1.0323   -0.7500    0.0000 C   0  0  0  0  0  0  0  0  0  3  0  0
    0.3943   -1.2135    0.0000 C   0  0  0  0  0  0  0  0  0  6  0  0
    2.6004    0.7041    0.0000 H   0  0  0  0  0  0  0  0  0  0  0  0
    2.3907   -1.0037    0.0000 H   0  0  0  0  0  0  0  0  0  0  0  0
   -3.7729   -0.4702    0.0000 H   0  0  0  0  0  0  0  0  0  0  0  0
   -1.7925   -1.2304    0.0000 H   0  0  0  0  0  0  0  0  0  0  0  0
   -2.7268    0.8681    0.0000 H   0  0  0  0  0  0  0  0  0  0  0  0
   -2.5241   -0.5932    0.0000 O   0  0  0  0  0  0  0  0  0  1  0  0
   -1.3442   -2.2172    0.0000 C   0  0  0  0  0  0  0  0  0  4  0  0
    1.6933   -1.9635    0.0000 H   0  0  0  0  0  0  0  0  0  0  0  0
   -0.2158   -2.5838    0.0000 H   0  0  0  0  0  0  0  0  0  0  0  0
   -3.4057   -1.8067    0.0000 H   0  0  0  0  0  0  0  0  0  0  0  0
   -1.6560   -3.6844    0.0000 C   0  0  0  0  0  0  0  0  0  5  0  0
   -1.9679   -5.1517    0.0000 H   0  0  0  0  0  0  0  0  0  0  0  0
    2.2655   10.0169    0.0000 H   0  0  0  0  0  0  0  0  0  0  0  0
  1  2  1  0
  3  1  2  0
  1  4  1  0
  5  3  1  0
  3  6  1  0
  4  7  2  0
  4  8  1  0
  9  5  2  0
  5 10  1  0
 11  7  1  0
  7  9  1  0
  9 12  1  0
 13 11  1  0
 11 14  1  0
 11 15  1  0
 12 16  1  0
 12 17  1  0
 12 18  1  1
 17 13  1  0
 13 19  1  0
 13 20  1  0
 16 21  1  0
 16 22  1  0
 16 23  1  0
 24 17  1  0
 17 25  1  6
 21 26  1  0
 21 27  1  0
 21 28  1  0
 29 24  1  0
 26 24  1  0
 24 30  1  1
 26 31  1  6
 26 32  1  0
 33 29  1  0
 29 34  1  0
 29 35  1  0
 31 36  1  0
 31 37  1  0
 31 38  1  0
 39 32  1  0
 32 40  1  1
 32 33  1  0
 33 41  1  0
 33 42  1  0
 39 43  1  0
 40 44  3  0
 44 45  1  0
  2 46  1  0
M  END
>  <SMILES>  (1) 
C#CC1(O)CCC2C3CCc4cc(O)ccc4C3CCC21C

>  <Molecular Weight>  (1) 
296.4

>  <Substrate_ID>  (1) 
MOL0091

>  <Substrate>  (1) 


>  <Substrate_SMILES>  (1) 
C#CC1(O)CCC2C3CCc4cc(OC)ccc4C3CCC21C

>  <Reaction>  (1) 
O-demethylation

>  <Score>  (1) 
0.7015

>  <Reaction_Score>  (1) 
0.7725

>  <Bond_Score>  (1) 
0.637

>  <Rank>  (1) 
1

>  <Subtype>  (1) 
1A2, 2B6, 2C8, 2C9, 2C19, 2D6, 3A4

>  <Subtype_Scores>  (1) 
[1A2] SOM_score: 0.5490, Reaction_score: 0.7725, Score: 0.6512
[2B6] SOM_score: 0.3007, Reaction_score: 0.7725, Score: 0.4819
[2C8] SOM_score: 0.3012, Reaction_score: 0.7725, Score: 0.4824
[2C9] SOM_score: 0.4580, Reaction_score: 0.7725, Score: 0.5948
[2C19] SOM_score: 0.5304, Reaction_score: 0.7725, Score: 0.6401
[2D6] SOM_score: 0.6370, Reaction_score: 0.7725, Score: 0.7015
[3A4] SOM_score: 0.4959, Reaction_score: 0.7725, Score: 0.6190


$$$$

     RDKit          2D

 50 53  0  0  0  0  0  0  0  0999 V2000
    1.3299    5.6152    0.0000 C   0  0  0  0  0  0  0  0  0 12  0  0
    2.4446    4.6115    0.0000 C   0  0  0  0  0  0  0  0  0 11  0  0
    3.8354    4.0496    0.0000 O   0  0  0  0  0  0  0  0  0 24  0  0
    2.1328    3.1443    0.0000 C   0  0  0  0  0  0  0  0  0 10  0  0
   -0.0967    5.1517    0.0000 C   0  0  0  0  0  0  0  0  0 13  0  0
    1.6418    7.0824    0.0000 C   0  0  0  0  0  0  0  0  0 18  0  0
   -1.2114    6.1554    0.0000 C   0  0  0  0  0  0  0  0  0 14  0  0
   -0.4086    3.6844    0.0000 C   0  0  0  0  0  0  0  0  0 19  0  0
    0.5271    8.0861    0.0000 C   0  0  0  0  0  0  0  0  0 16  0  0
    3.0684    7.5459    0.0000 H   0  0  0  0  0  0  0  0  0  0  0  0
   -0.8995    7.6226    0.0000 C   0  0  0  0  0  0  0  0  0 15  0  0
   -2.6380    5.6918    0.0000 H   0  0  0  0  0  0  0  0  0  0  0  0
   -1.8351    3.2209    0.0000 C   0  0  0  0  0  0  0  0  0 20  0  0
    0.7062    2.6807    0.0000 C   0  0  0  0  0  0  0  0  0  9  0  0
   -1.2056    4.6014    0.0000 H   0  0  0  0  0  0  0  0  0  0  0  0
    0.8389    9.5533    0.0000 O   0  0  0  0  0  0  0  0  0  2  0  0
   -2.0143    8.6263    0.0000 H   0  0  0  0  0  0  0  0  0  0  0  0
   -2.1470    1.7537    0.0000 C   0  0  0  0  0  0  0  0  0 21  0  0
   -3.3342    3.2733    0.0000 H   0  0  0  0  0  0  0  0  0  0  0  0
   -2.1496    4.3945    0.0000 H   0  0  0  0  0  0  0  0  0  0  0  0
    0.3943    1.2135    0.0000 C   0  0  0  0  0  0  0  0  0  8  0  0
    1.8209    1.6771    0.0000 H   0  0  0  0  0  0  0  0  0  0  0  0
   -0.2758   10.5570    0.0000 C   0  0  0  0  0  0  0  0  0 17  0  0
   -1.0323    0.7500    0.0000 C   0  0  0  0  0  0  0  0  0 22  0  0
   -2.7205    1.2000    0.0000 H   0  0  0  0  0  0  0  0  0  0  0  0
   -3.5378    2.3156    0.0000 H   0  0  0  0  0  0  0  0  0  0  0  0
    1.2760    0.0000    0.0000 C   0  0  0  0  0  0  0  0  0  7  0  0
   -0.8192    2.0952    0.0000 H   0  0  0  0  0  0  0  0  0  0  0  0
   -1.3905   11.5607    0.0000 H   0  0  0  0  0  0  0  0  0  0  0  0
    0.7279   11.6717    0.0000 H   0  0  0  0  0  0  0  0  0  0  0  0
   -1.2795    9.4423    0.0000 H   0  0  0  0  0  0  0  0  0  0  0  0
   -2.4026    0.1399    0.0000 C   0  0  0  0  0  0  0  0  0 23  0  0
   -1.0323   -0.7500    0.0000 C   0  0  0  0  0  0  0  0  0  3  0  0
    0.3943   -1.2135    0.0000 C   0  0  0  0  0  0  0  0  0  6  0  0
    2.6004    0.7041    0.0000 H   0  0  0  0  0  0  0  0  0  0  0  0
    2.3907   -1.0037    0.0000 H   0  0  0  0  0  0  0  0  0  0  0  0
   -3.7729   -0.4702    0.0000 H   0  0  0  0  0  0  0  0  0  0  0  0
   -1.7925   -1.2304    0.0000 H   0  0  0  0  0  0  0  0  0  0  0  0
   -2.7268    0.8681    0.0000 H   0  0  0  0  0  0  0  0  0  0  0  0
   -2.5241   -0.5932    0.0000 O   0  0  0  0  0  0  0  0  0  1  0  0
   -1.3442   -2.2172    0.0000 C   0  0  0  0  0  0  0  0  0  4  0  0
    1.6933   -1.9635    0.0000 H   0  0  0  0  0  0  0  0  0  0  0  0
   -0.2158   -2.5838    0.0000 H   0  0  0  0  0  0  0  0  0  0  0  0
   -3.4057   -1.8067    0.0000 H   0  0  0  0  0  0  0  0  0  0  0  0
   -1.6560   -3.6844    0.0000 C   0  0  0  0  0  0  0  0  0  5  0  0
   -1.9679   -5.1517    0.0000 H   0  0  0  0  0  0  0  0  0  0  0  0
    3.2395    5.8836    0.0000 H   0  0  0  0  0  0  0  0  0  0  0  0
    2.6947    1.7535    0.0000 H   0  0  0  0  0  0  0  0  0  0  0  0
    3.6143    2.9096    0.0000 H   0  0  0  0  0  0  0  0  0  0  0  0
    4.2237    2.6007    0.0000 H   0  0  0  0  0  0  0  0  0  0  0  0
  1  2  1  0
  2  3  1  0
  2  4  1  0
  1  5  2  0
  6  1  1  0
  5  7  1  0
  5  8  1  0
  9  6  2  0
  6 10  1  0
  7 11  2  0
  7 12  1  0
  8 13  1  0
  8 14  1  0
  8 15  1  1
 11  9  1  0
  9 16  1  0
 11 17  1  0
 13 18  1  0
 13 19  1  0
 13 20  1  0
 21 14  1  0
 14  4  1  0
 14 22  1  6
 16 23  1  0
 18 24  1  0
 18 25  1  0
 18 26  1  0
 27 21  1  0
 24 21  1  0
 21 28  1  1
 23 29  1  0
 23 30  1  0
 23 31  1  0
 24 32  1  6
 24 33  1  0
 34 27  1  0
 27 35  1  0
 27 36  1  0
 32 37  1  0
 32 38  1  0
 32 39  1  0
 40 33  1  0
 33 41  1  1
 33 34  1  0
 34 42  1  0
 34 43  1  0
 40 44  1  0
 41 45  3  0
 45 46  1  0
  2 47  1  0
  4 48  1  0
  4 49  1  0
  3 50  1  0
M  END
>  <SMILES>  (2) 
C#CC1(O)CCC2C3CC(O)c4cc(OC)ccc4C3CCC21C

>  <Molecular Weight>  (2) 
326.4

>  <Substrate_ID>  (2) 
MOL0091

>  <Substrate>  (2) 


>  <Substrate_SMILES>  (2) 
C#CC1(O)CCC2C3CCc4cc(OC)ccc4C3CCC21C

>  <Reaction>  (2) 
benzylic_hydroxylation_(c-CH2-CR),aliphatic hydroxylation

>  <Score>  (2) 
0.4424

>  <Reaction_Score>  (2) 
0.4587

>  <Bond_Score>  (2) 
0.4267

>  <Rank>  (2) 
2

>  <Subtype>  (2) 
2C8, 2C9, 2C19, 2D6, 3A4

>  <Subtype_Scores>  (2) 
[2C8] SOM_score: 0.1558, Reaction_score: 0.4587, Score: 0.2673
[2C9] SOM_score: 0.2395, Reaction_score: 0.4587, Score: 0.3315
[2C19] SOM_score: 0.2602, Reaction_score: 0.4587, Score: 0.3455
[2D6] SOM_score: 0.2250, Reaction_score: 0.4587, Score: 0.3213
[3A4] SOM_score: 0.4267, Reaction_score: 0.4587, Score: 0.4424


$$$$
