
     RDKit          2D

 45 44  0  0  0  0  0  0  0  0999 V2000
    0.0000    0.0000    0.0000 C   0  0  0  0  0  0  0  0  0 16  0  0
    1.5000    0.0000    0.0000 C   0  0  0  0  0  0  0  0  0 15  0  0
    1.5000   -1.5000    0.0000 O   0  0  0  0  0  0  0  0  0 28  0  0
    3.0000    0.0000    0.0000 C   0  0  0  0  0  0  0  0  0 14  0  0
   -1.5000    0.0000    0.0000 C   0  0  0  0  0  0  0  0  0 17  0  0
    0.0000    1.5000    0.0000 H   0  0  0  0  0  0  0  0  0  0  0  0
   -0.0000   -1.5000    0.0000 H   0  0  0  0  0  0  0  0  0  0  0  0
   -3.0000    0.0000    0.0000 C   0  0  0  0  0  0  0  0  0 18  0  0
   -1.5000   -1.5000    0.0000 H   0  0  0  0  0  0  0  0  0  0  0  0
   -1.5000    1.5000    0.0000 H   0  0  0  0  0  0  0  0  0  0  0  0
   -4.5000    0.0000    0.0000 C   0  0  0  0  0  0  0  0  0 19  0  0
   -3.0000    1.5000    0.0000 H   0  0  0  0  0  0  0  0  0  0  0  0
   -3.0000   -1.5000    0.0000 H   0  0  0  0  0  0  0  0  0  0  0  0
   -6.0000    0.0000    0.0000 C   0  0  0  0  0  0  0  0  0 20  0  0
   -4.5000   -1.5000    0.0000 H   0  0  0  0  0  0  0  0  0  0  0  0
   -4.5000    1.5000    0.0000 H   0  0  0  0  0  0  0  0  0  0  0  0
   -7.5000    0.0000    0.0000 C   0  0  0  0  0  0  0  0  0 21  0  0
   -6.0000    1.5000    0.0000 H   0  0  0  0  0  0  0  0  0  0  0  0
   -6.0000   -1.5000    0.0000 H   0  0  0  0  0  0  0  0  0  0  0  0
   -9.0000    0.0000    0.0000 C   0  0  0  0  0  0  0  0  0 23  0  0
   -7.5000   -1.5000    0.0000 H   0  0  0  0  0  0  0  0  0  0  0  0
   -7.5000    1.5000    0.0000 H   0  0  0  0  0  0  0  0  0  0  0  0
  -10.5000    0.0000    0.0000 C   0  0  0  0  0  0  0  0  0 25  0  0
   -9.0000    1.5000    0.0000 F   0  0  0  0  0  0  0  0  0  4  0  0
   -9.0000   -1.5000    0.0000 F   0  0  0  0  0  0  0  0  0  5  0  0
  -12.0000    0.0000    0.0000 C   0  0  0  0  0  0  0  0  0 27  0  0
  -10.5000   -1.5000    0.0000 F   0  0  0  0  0  0  0  0  0  8  0  0
  -10.5000    1.5000    0.0000 F   0  0  0  0  0  0  0  0  0  9  0  0
  -13.5000    0.0000    0.0000 C   0  0  0  0  0  0  0  0  0 26  0  0
  -12.0000    1.5000    0.0000 F   0  0  0  0  0  0  0  0  0 12  0  0
  -12.0000   -1.5000    0.0000 F   0  0  0  0  0  0  0  0  0 13  0  0
  -15.0000    0.0000    0.0000 C   0  0  0  0  0  0  0  0  0 24  0  0
  -13.5000   -1.5000    0.0000 F   0  0  0  0  0  0  0  0  0 10  0  0
  -13.5000    1.5000    0.0000 F   0  0  0  0  0  0  0  0  0 11  0  0
  -16.5000    0.0000    0.0000 C   0  0  0  0  0  0  0  0  0 22  0  0
  -15.0000    1.5000    0.0000 F   0  0  0  0  0  0  0  0  0  6  0  0
  -15.0000   -1.5000    0.0000 F   0  0  0  0  0  0  0  0  0  7  0  0
  -18.0000    0.0000    0.0000 F   0  0  0  0  0  0  0  0  0  1  0  0
  -16.5000   -1.5000    0.0000 F   0  0  0  0  0  0  0  0  0  2  0  0
  -16.5000    1.5000    0.0000 F   0  0  0  0  0  0  0  0  0  3  0  0
    1.5000    1.5000    0.0000 H   0  0  0  0  0  0  0  0  0  0  0  0
    2.6979   -2.4028    0.0000 H   0  0  0  0  0  0  0  0  0  0  0  0
    4.5000   -0.0000    0.0000 H   0  0  0  0  0  0  0  0  0  0  0  0
    3.0000    1.5000    0.0000 H   0  0  0  0  0  0  0  0  0  0  0  0
    3.1828   -1.4888    0.0000 H   0  0  0  0  0  0  0  0  0  0  0  0
  1  2  1  0
  2  3  1  0
  2  4  1  0
  5  1  1  0
  1  6  1  0
  1  7  1  0
  8  5  1  0
  5  9  1  0
  5 10  1  0
 11  8  1  0
  8 12  1  0
  8 13  1  0
 14 11  1  0
 11 15  1  0
 11 16  1  0
 17 14  1  0
 14 18  1  0
 14 19  1  0
 20 17  1  0
 17 21  1  0
 17 22  1  0
 23 20  1  0
 20 24  1  0
 20 25  1  0
 26 23  1  0
 23 27  1  0
 23 28  1  0
 29 26  1  0
 26 30  1  0
 26 31  1  0
 32 29  1  0
 29 33  1  0
 29 34  1  0
 35 32  1  0
 32 36  1  0
 32 37  1  0
 38 35  1  0
 35 39  1  0
 35 40  1  0
  2 41  1  0
  3 42  1  0
  4 43  1  0
  4 44  1  0
  4 45  1  0
M  END
>  <SMILES>  (1) 
CC(O)CCCCCCC(F)(F)C(F)(F)C(F)(F)C(F)(F)C(F)(F)C(F)(F)F

>  <Molecular Weight>  (1) 
448.3

>  <Substrate_ID>  (1) 
MOL0074

>  <Substrate>  (1) 


>  <Substrate_SMILES>  (1) 
CCCCCCCCC(F)(F)C(F)(F)C(F)(F)C(F)(F)C(F)(F)C(F)(F)F

>  <Reaction>  (1) 
aliphatic_hydroxylation_(sec_carbon,next_to_CH3),aliphatic hydroxylation

>  <Score>  (1) 
0.3348

>  <Reaction_Score>  (1) 
0.382

>  <Bond_Score>  (1) 
0.2934

>  <Rank>  (1) 
1

>  <Subtype>  (1) 
2C8, 3A4

>  <Subtype_Scores>  (1) 
[2C8] SOM_score: 0.2133, Reaction_score: 0.3820, Score: 0.2854
[3A4] SOM_score: 0.2829, Reaction_score: 0.3820, Score: 0.3288


$$$$

     RDKit          2D

 45 44  0  0  0  0  0  0  0  0999 V2000
    0.0000    0.0000    0.0000 C   0  0  0  0  0  0  0  0  0 16  0  0
    1.5000    0.0000    0.0000 C   0  0  0  0  0  0  0  0  0 15  0  0
    3.0000    0.0000    0.0000 C   0  0  0  0  0  0  0  0  0 14  0  0
    4.5000    0.0000    0.0000 O   0  0  0  0  0  0  0  0  0 28  0  0
   -1.5000    0.0000    0.0000 C   0  0  0  0  0  0  0  0  0 17  0  0
    0.0000    1.5000    0.0000 H   0  0  0  0  0  0  0  0  0  0  0  0
   -0.0000   -1.5000    0.0000 H   0  0  0  0  0  0  0  0  0  0  0  0
   -3.0000    0.0000    0.0000 C   0  0  0  0  0  0  0  0  0 18  0  0
   -1.5000   -1.5000    0.0000 H   0  0  0  0  0  0  0  0  0  0  0  0
   -1.5000    1.5000    0.0000 H   0  0  0  0  0  0  0  0  0  0  0  0
   -4.5000    0.0000    0.0000 C   0  0  0  0  0  0  0  0  0 19  0  0
   -3.0000    1.5000    0.0000 H   0  0  0  0  0  0  0  0  0  0  0  0
   -3.0000   -1.5000    0.0000 H   0  0  0  0  0  0  0  0  0  0  0  0
   -6.0000    0.0000    0.0000 C   0  0  0  0  0  0  0  0  0 20  0  0
   -4.5000   -1.5000    0.0000 H   0  0  0  0  0  0  0  0  0  0  0  0
   -4.5000    1.5000    0.0000 H   0  0  0  0  0  0  0  0  0  0  0  0
   -7.5000    0.0000    0.0000 C   0  0  0  0  0  0  0  0  0 21  0  0
   -6.0000    1.5000    0.0000 H   0  0  0  0  0  0  0  0  0  0  0  0
   -6.0000   -1.5000    0.0000 H   0  0  0  0  0  0  0  0  0  0  0  0
   -9.0000    0.0000    0.0000 C   0  0  0  0  0  0  0  0  0 23  0  0
   -7.5000   -1.5000    0.0000 H   0  0  0  0  0  0  0  0  0  0  0  0
   -7.5000    1.5000    0.0000 H   0  0  0  0  0  0  0  0  0  0  0  0
  -10.5000    0.0000    0.0000 C   0  0  0  0  0  0  0  0  0 25  0  0
   -9.0000    1.5000    0.0000 F   0  0  0  0  0  0  0  0  0  4  0  0
   -9.0000   -1.5000    0.0000 F   0  0  0  0  0  0  0  0  0  5  0  0
  -12.0000    0.0000    0.0000 C   0  0  0  0  0  0  0  0  0 27  0  0
  -10.5000   -1.5000    0.0000 F   0  0  0  0  0  0  0  0  0  8  0  0
  -10.5000    1.5000    0.0000 F   0  0  0  0  0  0  0  0  0  9  0  0
  -13.5000    0.0000    0.0000 C   0  0  0  0  0  0  0  0  0 26  0  0
  -12.0000    1.5000    0.0000 F   0  0  0  0  0  0  0  0  0 12  0  0
  -12.0000   -1.5000    0.0000 F   0  0  0  0  0  0  0  0  0 13  0  0
  -15.0000    0.0000    0.0000 C   0  0  0  0  0  0  0  0  0 24  0  0
  -13.5000   -1.5000    0.0000 F   0  0  0  0  0  0  0  0  0 10  0  0
  -13.5000    1.5000    0.0000 F   0  0  0  0  0  0  0  0  0 11  0  0
  -16.5000    0.0000    0.0000 C   0  0  0  0  0  0  0  0  0 22  0  0
  -15.0000    1.5000    0.0000 F   0  0  0  0  0  0  0  0  0  6  0  0
  -15.0000   -1.5000    0.0000 F   0  0  0  0  0  0  0  0  0  7  0  0
  -18.0000    0.0000    0.0000 F   0  0  0  0  0  0  0  0  0  1  0  0
  -16.5000   -1.5000    0.0000 F   0  0  0  0  0  0  0  0  0  2  0  0
  -16.5000    1.5000    0.0000 F   0  0  0  0  0  0  0  0  0  3  0  0
    1.5000   -1.5000    0.0000 H   0  0  0  0  0  0  0  0  0  0  0  0
    1.5000    1.5000    0.0000 H   0  0  0  0  0  0  0  0  0  0  0  0
    3.0000    1.5000    0.0000 H   0  0  0  0  0  0  0  0  0  0  0  0
    3.0000   -1.5000    0.0000 H   0  0  0  0  0  0  0  0  0  0  0  0
    5.2500   -1.2990    0.0000 H   0  0  0  0  0  0  0  0  0  0  0  0
  1  2  1  0
  2  3  1  0
  3  4  1  0
  5  1  1  0
  1  6  1  0
  1  7  1  0
  8  5  1  0
  5  9  1  0
  5 10  1  0
 11  8  1  0
  8 12  1  0
  8 13  1  0
 14 11  1  0
 11 15  1  0
 11 16  1  0
 17 14  1  0
 14 18  1  0
 14 19  1  0
 20 17  1  0
 17 21  1  0
 17 22  1  0
 23 20  1  0
 20 24  1  0
 20 25  1  0
 26 23  1  0
 23 27  1  0
 23 28  1  0
 29 26  1  0
 26 30  1  0
 26 31  1  0
 32 29  1  0
 29 33  1  0
 29 34  1  0
 35 32  1  0
 32 36  1  0
 32 37  1  0
 38 35  1  0
 35 39  1  0
 35 40  1  0
  2 41  1  0
  2 42  1  0
  3 43  1  0
  3 44  1  0
  4 45  1  0
M  END
>  <SMILES>  (2) 
OCCCCCCCCC(F)(F)C(F)(F)C(F)(F)C(F)(F)C(F)(F)C(F)(F)F

>  <Molecular Weight>  (2) 
448.3

>  <Substrate_ID>  (2) 
MOL0074

>  <Substrate>  (2) 


>  <Substrate_SMILES>  (2) 
CCCCCCCCC(F)(F)C(F)(F)C(F)(F)C(F)(F)C(F)(F)C(F)(F)F

>  <Reaction>  (2) 
aliphatic_hydroxylation_(primary_carbon_next_to_sec_carbon),aliphatic hydroxylation

>  <Score>  (2) 
0.2666

>  <Reaction_Score>  (2) 
0.3133

>  <Bond_Score>  (2) 
0.2268

>  <Rank>  (2) 
2

>  <Subtype>  (2) 
2C8

>  <Subtype_Scores>  (2) 
[2C8] SOM_score: 0.1686, Reaction_score: 0.3133, Score: 0.2299


$$$$
