
     RDKit          2D

 44 47  0  0  0  0  0  0  0  0999 V2000
   -1.8351    3.2209    0.0000 C   0  0  0  0  0  0  0  0  0 23  0  0
   -2.9499    4.2246    0.0000 O   0  0  0  0  0  0  0  0  0  4  0  0
   -0.4086    3.6844    0.0000 C   0  0  0  0  0  0  0  0  0 13  0  0
   -2.1470    1.7537    0.0000 C   0  0  0  0  0  0  0  0  0 17  0  0
    0.7062    2.6807    0.0000 C   0  0  0  0  0  0  0  0  0 16  0  0
   -0.0967    5.1517    0.0000 H   0  0  0  0  0  0  0  0  0  0  0  0
   -1.0323    0.7500    0.0000 C   0  0  0  0  0  0  0  0  0 27  0  0
   -3.5736    1.2902    0.0000 H   0  0  0  0  0  0  0  0  0  0  0  0
    0.3943    1.2135    0.0000 C   0  0  0  0  0  0  0  0  0 26  0  0
    2.1328    3.1443    0.0000 H   0  0  0  0  0  0  0  0  0  0  0  0
   -1.0323   -0.7500    0.0000 N   0  0  0  0  0  0  0  0  0  8  0  0
    1.2760   -0.0000    0.0000 N   0  0  0  0  0  0  0  0  0  6  0  0
   -2.2458   -1.6317    0.0000 C   0  0  0  0  0  0  0  0  0 10  0  0
    0.3943   -1.2135    0.0000 C   0  0  0  0  0  0  0  0  0 25  0  0
   -3.4593   -2.5134    0.0000 H   0  0  0  0  0  0  0  0  0  0  0  0
   -1.5186   -2.9436    0.0000 H   0  0  0  0  0  0  0  0  0  0  0  0
   -3.1275   -0.4182    0.0000 H   0  0  0  0  0  0  0  0  0  0  0  0
    0.8578   -2.6401    0.0000 C   0  0  0  0  0  0  0  0  0 18  0  0
    1.3213   -4.0667    0.0000 O   0  0  0  0  0  0  0  0  0  5  0  0
   -0.5016   -3.2741    0.0000 H   0  0  0  0  0  0  0  0  0  0  0  0
    2.2844   -2.1766    0.0000 H   0  0  0  0  0  0  0  0  0  0  0  0
    2.7886   -4.3786    0.0000 C   0  0  0  0  0  0  0  0  0 24  0  0
    3.2521   -5.8051    0.0000 C   0  0  0  0  0  0  0  0  0 14  0  0
    3.7923   -3.2638    0.0000 C   0  0  0  0  0  0  0  0  0 15  0  0
    4.7193   -6.1170    0.0000 C   0  0  0  0  0  0  0  0  0 11  0  0
    2.2484   -6.9199    0.0000 H   0  0  0  0  0  0  0  0  0  0  0  0
    5.2595   -3.5757    0.0000 C   0  0  0  0  0  0  0  0  0 12  0  0
    3.3287   -1.8373    0.0000 H   0  0  0  0  0  0  0  0  0  0  0  0
    5.7230   -5.0023    0.0000 C   0  0  0  0  0  0  0  0  0 22  0  0
    5.1828   -7.5436    0.0000 H   0  0  0  0  0  0  0  0  0  0  0  0
    6.2632   -2.4610    0.0000 H   0  0  0  0  0  0  0  0  0  0  0  0
    7.1902   -5.3142    0.0000 C   0  0  0  0  0  0  0  0  0 19  0  0
    8.6575   -5.6260    0.0000 C   0  0  0  0  0  0  0  0  0 28  0  0
    6.8784   -6.7814    0.0000 H   0  0  0  0  0  0  0  0  0  0  0  0
    7.5021   -3.8469    0.0000 H   0  0  0  0  0  0  0  0  0  0  0  0
   10.1575   -5.6260    0.0000 C   0  0  0  0  0  0  0  0  0 21  0  0
    8.1939   -7.0526    0.0000 S   0  0  0  0  0  0  0  0  0  1  0  0
    8.8142   -4.1342    0.0000 H   0  0  0  0  0  0  0  0  0  0  0  0
   10.6210   -7.0526    0.0000 N   0  0  0  0  0  0  0  0  0  7  0  0
   11.0391   -4.4125    0.0000 O   0  0  0  0  0  0  0  0  0  3  0  0
    9.4075   -7.9343    0.0000 C   0  0  0  0  0  0  0  0  0 20  0  0
   12.0476   -7.5161    0.0000 H   0  0  0  0  0  0  0  0  0  0  0  0
    9.4075   -9.4343    0.0000 O   0  0  0  0  0  0  0  0  0  2  0  0
   -4.3764    3.7611    0.0000 H   0  0  0  0  0  0  0  0  0  0  0  0
  1  2  1  0
  3  1  2  0
  1  4  1  0
  5  3  1  0
  3  6  1  0
  4  7  2  0
  4  8  1  0
  9  5  2  0
  5 10  1  0
  7 11  1  0
  7  9  1  0
 12  9  1  0
 11 13  1  0
 11 14  1  0
 14 12  2  0
 13 15  1  0
 13 16  1  0
 13 17  1  0
 18 14  1  0
 19 18  1  0
 18 20  1  0
 18 21  1  0
 22 19  1  0
 23 22  2  0
 22 24  1  0
 25 23  1  0
 23 26  1  0
 24 27  2  0
 24 28  1  0
 29 25  2  0
 25 30  1  0
 27 29  1  0
 27 31  1  0
 32 29  1  0
 33 32  1  0
 32 34  1  0
 32 35  1  0
 36 33  1  0
 33 37  1  0
 33 38  1  0
 39 36  1  0
 36 40  2  0
 37 41  1  0
 41 39  1  0
 39 42  1  0
 41 43  2  0
  2 44  1  0
M  END
>  <SMILES>  (1) 
Cn1c(COc2ccc(CC3SC(=O)NC3=O)cc2)nc2ccc(O)cc21

>  <Molecular Weight>  (1) 
383.4

>  <Substrate_ID>  (1) 
MOL0030

>  <Substrate>  (1) 


>  <Substrate_SMILES>  (1) 
COc1ccc2nc(COc3ccc(CC4SC(=O)NC4=O)cc3)n(C)c2c1

>  <Reaction>  (1) 
O-demethylation

>  <Score>  (1) 
0.6283

>  <Reaction_Score>  (1) 
0.6924

>  <Bond_Score>  (1) 
0.5703

>  <Rank>  (1) 
1

>  <Subtype>  (1) 
1A2, 2B6, 2C8, 2C9, 2C19, 2D6, 3A4

>  <Subtype_Scores>  (1) 
[1A2] SOM_score: 0.4888, Reaction_score: 0.6924, Score: 0.5817
[2B6] SOM_score: 0.1945, Reaction_score: 0.6924, Score: 0.3670
[2C8] SOM_score: 0.2180, Reaction_score: 0.6924, Score: 0.3885
[2C9] SOM_score: 0.3765, Reaction_score: 0.6924, Score: 0.5106
[2C19] SOM_score: 0.4615, Reaction_score: 0.6924, Score: 0.5653
[2D6] SOM_score: 0.5703, Reaction_score: 0.6924, Score: 0.6283
[3A4] SOM_score: 0.3743, Reaction_score: 0.6924, Score: 0.5090


$$$$

     RDKit          2D

 48 51  0  0  0  0  0  0  0  0999 V2000
   -4.4471   11.9485    0.0000 C   0  0  0  0  0  0  0  0  0 20  0  0
   -4.9107   10.5220    0.0000 S   0  0  0  0  0  4  0  0  0  1  0  0
   -6.3372   10.0584    0.0000 O   0  0  0  0  0  0  0  0  0 29  0  0
   -3.6971    9.6403    0.0000 C   0  0  0  0  0  0  0  0  0 28  0  0
   -5.3288   13.1621    0.0000 O   0  0  0  0  0  0  0  0  0  2  0  0
   -2.9471   11.9485    0.0000 N   0  0  0  0  0  0  0  0  0  7  0  0
   -2.4836   10.5220    0.0000 C   0  0  0  0  0  0  0  0  0 21  0  0
   -2.0655   13.1621    0.0000 H   0  0  0  0  0  0  0  0  0  0  0  0
   -1.0112   10.2358    0.0000 O   0  0  0  0  0  0  0  0  0  3  0  0
   -2.6934    8.5256    0.0000 C   0  0  0  0  0  0  0  0  0 19  0  0
   -4.7008    8.5256    0.0000 H   0  0  0  0  0  0  0  0  0  0  0  0
   -1.6897    7.4108    0.0000 C   0  0  0  0  0  0  0  0  0 22  0  0
   -1.4647    9.3859    0.0000 H   0  0  0  0  0  0  0  0  0  0  0  0
   -3.8082    7.5219    0.0000 H   0  0  0  0  0  0  0  0  0  0  0  0
   -2.1533    5.9843    0.0000 C   0  0  0  0  0  0  0  0  0 11  0  0
   -0.2225    7.7227    0.0000 C   0  0  0  0  0  0  0  0  0 12  0  0
   -1.1496    4.8695    0.0000 C   0  0  0  0  0  0  0  0  0 14  0  0
   -3.6205    5.6724    0.0000 H   0  0  0  0  0  0  0  0  0  0  0  0
    0.7812    6.6080    0.0000 C   0  0  0  0  0  0  0  0  0 15  0  0
    0.2410    9.1493    0.0000 H   0  0  0  0  0  0  0  0  0  0  0  0
    0.3177    5.1814    0.0000 C   0  0  0  0  0  0  0  0  0 24  0  0
   -1.3814    3.6769    0.0000 H   0  0  0  0  0  0  0  0  0  0  0  0
    2.2484    6.9199    0.0000 H   0  0  0  0  0  0  0  0  0  0  0  0
    1.3213    4.0667    0.0000 O   0  0  0  0  0  0  0  0  0  5  0  0
    0.8578    2.6401    0.0000 C   0  0  0  0  0  0  0  0  0 18  0  0
    0.3943    1.2135    0.0000 C   0  0  0  0  0  0  0  0  0 25  0  0
    2.2844    2.1766    0.0000 H   0  0  0  0  0  0  0  0  0  0  0  0
   -0.5016    3.2741    0.0000 H   0  0  0  0  0  0  0  0  0  0  0  0
    1.2760    0.0000    0.0000 N   0  0  0  0  0  0  0  0  0  6  0  0
   -1.0323    0.7500    0.0000 N   0  0  0  0  0  0  0  0  0  8  0  0
    0.3943   -1.2135    0.0000 C   0  0  0  0  0  0  0  0  0 26  0  0
   -1.0323   -0.7500    0.0000 C   0  0  0  0  0  0  0  0  0 27  0  0
   -2.2458    1.6317    0.0000 C   0  0  0  0  0  0  0  0  0 10  0  0
    0.7062   -2.6807    0.0000 C   0  0  0  0  0  0  0  0  0 16  0  0
   -2.1470   -1.7537    0.0000 C   0  0  0  0  0  0  0  0  0 17  0  0
   -3.4593    2.5134    0.0000 H   0  0  0  0  0  0  0  0  0  0  0  0
   -1.5317    2.6146    0.0000 H   0  0  0  0  0  0  0  0  0  0  0  0
   -3.1275    0.4182    0.0000 H   0  0  0  0  0  0  0  0  0  0  0  0
   -0.4086   -3.6844    0.0000 C   0  0  0  0  0  0  0  0  0 13  0  0
    2.1328   -3.1443    0.0000 H   0  0  0  0  0  0  0  0  0  0  0  0
   -1.8351   -3.2209    0.0000 C   0  0  0  0  0  0  0  0  0 23  0  0
   -3.5736   -1.2902    0.0000 H   0  0  0  0  0  0  0  0  0  0  0  0
   -0.0967   -5.1517    0.0000 H   0  0  0  0  0  0  0  0  0  0  0  0
   -2.9499   -4.2246    0.0000 O   0  0  0  0  0  0  0  0  0  4  0  0
   -4.3764   -3.7611    0.0000 C   0  0  0  0  0  0  0  0  0  9  0  0
   -5.8030   -3.2976    0.0000 H   0  0  0  0  0  0  0  0  0  0  0  0
   -4.8400   -5.1877    0.0000 H   0  0  0  0  0  0  0  0  0  0  0  0
   -3.9129   -2.3345    0.0000 H   0  0  0  0  0  0  0  0  0  0  0  0
  1  2  1  0
  2  3  2  0
  2  4  1  0
  1  5  2  0
  1  6  1  0
  6  7  1  0
  6  8  1  0
  7  9  2  0
  7  4  1  0
  4 10  1  0
  4 11  1  0
 10 12  1  0
 10 13  1  0
 10 14  1  0
 12 15  2  0
 16 12  1  0
 15 17  1  0
 15 18  1  0
 19 16  2  0
 16 20  1  0
 17 21  2  0
 17 22  1  0
 21 19  1  0
 19 23  1  0
 21 24  1  0
 24 25  1  0
 25 26  1  0
 25 27  1  0
 25 28  1  0
 26 29  2  0
 30 26  1  0
 29 31  1  0
 32 30  1  0
 30 33  1  0
 31 34  2  0
 32 31  1  0
 35 32  2  0
 33 36  1  0
 33 37  1  0
 33 38  1  0
 34 39  1  0
 34 40  1  0
 41 35  1  0
 35 42  1  0
 39 41  2  0
 39 43  1  0
 41 44  1  0
 44 45  1  0
 45 46  1  0
 45 47  1  0
 45 48  1  0
M  END
>  <SMILES>  (2) 
COc1ccc2nc(COc3ccc(CC4C(=O)NC(=O)S4=O)cc3)n(C)c2c1

>  <Molecular Weight>  (2) 
413.5

>  <Substrate_ID>  (2) 
MOL0030

>  <Substrate>  (2) 


>  <Substrate_SMILES>  (2) 
COc1ccc2nc(COc3ccc(CC4SC(=O)NC4=O)cc3)n(C)c2c1

>  <Reaction>  (2) 
sulfide_oxidation_(C-S-C),S-oxidation

>  <Score>  (2) 
0.2842

>  <Reaction_Score>  (2) 
0.1851

>  <Bond_Score>  (2) 
0.4362

>  <Rank>  (2) 
2

>  <Subtype>  (2) 
1A2, 2A6, 2B6, 2C8, 2C9, 2C19, 2D6, 3A4

>  <Subtype_Scores>  (2) 
[1A2] SOM_score: 0.3106, Reaction_score: 0.1851, Score: 0.2398
[2A6] SOM_score: 0.2026, Reaction_score: 0.1851, Score: 0.1937
[2B6] SOM_score: 0.3266, Reaction_score: 0.1851, Score: 0.2459
[2C8] SOM_score: 0.1433, Reaction_score: 0.1851, Score: 0.1629
[2C9] SOM_score: 0.3793, Reaction_score: 0.1851, Score: 0.2650
[2C19] SOM_score: 0.3563, Reaction_score: 0.1851, Score: 0.2568
[2D6] SOM_score: 0.3064, Reaction_score: 0.1851, Score: 0.2382
[3A4] SOM_score: 0.4362, Reaction_score: 0.1851, Score: 0.2842


$$$$

     RDKit          2D

 24 25  0  0  0  0  0  0  0  0999 V2000
    1.5000    0.0000    0.0000 C   0  0  0  0  0  0  0  0  0 24  0  0
    3.0000    0.0000    0.0000 O   0  0  0  0  0  0  0  0  0  5  0  0
    0.7500   -1.2990    0.0000 C   0  0  0  0  0  0  0  0  0 14  0  0
    0.7500    1.2990    0.0000 C   0  0  0  0  0  0  0  0  0 15  0  0
   -0.7500   -1.2990    0.0000 C   0  0  0  0  0  0  0  0  0 11  0  0
    1.5000   -2.5981    0.0000 H   0  0  0  0  0  0  0  0  0  0  0  0
   -0.7500    1.2990    0.0000 C   0  0  0  0  0  0  0  0  0 12  0  0
    1.5000    2.5981    0.0000 H   0  0  0  0  0  0  0  0  0  0  0  0
   -1.5000    0.0000    0.0000 C   0  0  0  0  0  0  0  0  0 22  0  0
   -1.5000   -2.5981    0.0000 H   0  0  0  0  0  0  0  0  0  0  0  0
   -1.5000    2.5981    0.0000 H   0  0  0  0  0  0  0  0  0  0  0  0
   -3.0000    0.0000    0.0000 C   0  0  0  0  0  0  0  0  0 19  0  0
   -4.5000    0.0000    0.0000 C   0  0  0  0  0  0  0  0  0 28  0  0
   -3.0000    1.5000    0.0000 H   0  0  0  0  0  0  0  0  0  0  0  0
   -3.0000   -1.5000    0.0000 H   0  0  0  0  0  0  0  0  0  0  0  0
   -5.9672    0.3119    0.0000 C   0  0  0  0  0  0  0  0  0 21  0  0
   -4.3432   -1.4918    0.0000 S   0  0  0  0  0  0  0  0  0  1  0  0
   -4.3432    1.4918    0.0000 H   0  0  0  0  0  0  0  0  0  0  0  0
   -6.7172   -0.9872    0.0000 N   0  0  0  0  0  0  0  0  0  7  0  0
   -6.5773    1.6822    0.0000 O   0  0  0  0  0  0  0  0  0  3  0  0
   -5.7135   -2.1019    0.0000 C   0  0  0  0  0  0  0  0  0 20  0  0
   -8.2090   -1.1440    0.0000 H   0  0  0  0  0  0  0  0  0  0  0  0
   -6.0254   -3.5691    0.0000 O   0  0  0  0  0  0  0  0  0  2  0  0
    3.7500   -1.2990    0.0000 H   0  0  0  0  0  0  0  0  0  0  0  0
  1  2  1  0
  3  1  2  0
  1  4  1  0
  5  3  1  0
  3  6  1  0
  4  7  2  0
  4  8  1  0
  9  5  2  0
  5 10  1  0
  7  9  1  0
  7 11  1  0
 12  9  1  0
 13 12  1  0
 12 14  1  0
 12 15  1  0
 16 13  1  0
 13 17  1  0
 13 18  1  0
 19 16  1  0
 16 20  2  0
 17 21  1  0
 21 19  1  0
 19 22  1  0
 21 23  2  0
  2 24  1  0
M  END
>  <SMILES>  (3) 
O=C1NC(=O)C(Cc2ccc(O)cc2)S1

>  <Molecular Weight>  (3) 
223.3

>  <Substrate_ID>  (3) 
MOL0030

>  <Substrate>  (3) 


>  <Substrate_SMILES>  (3) 
COc1ccc2nc(COc3ccc(CC4SC(=O)NC4=O)cc3)n(C)c2c1

>  <Reaction>  (3) 
O-dealkylation_(aromatic)

>  <Score>  (3) 
0.2378

>  <Reaction_Score>  (3) 
0.2209

>  <Bond_Score>  (3) 
0.2559

>  <Rank>  (3) 
3

>  <Subtype>  (3) 
3A4

>  <Subtype_Scores>  (3) 
[3A4] SOM_score: 0.2559, Reaction_score: 0.2209, Score: 0.2378


$$$$

     RDKit          2D

 26 27  0  0  0  0  0  0  0  0999 V2000
    4.2760    0.0000    0.0000 O   0  0  0  0  0  0  0  0  0 29  0  0
    2.7760    0.0000    0.0000 C   0  0  0  0  0  0  0  0  0 18  0  0
    1.2760    0.0000    0.0000 C   0  0  0  0  0  0  0  0  0 25  0  0
    2.9588   -1.4888    0.0000 H   0  0  0  0  0  0  0  0  0  0  0  0
    2.7760    1.5000    0.0000 H   0  0  0  0  0  0  0  0  0  0  0  0
    0.3943    1.2135    0.0000 N   0  0  0  0  0  0  0  0  0  6  0  0
    0.3943   -1.2135    0.0000 N   0  0  0  0  0  0  0  0  0  8  0  0
   -1.0323    0.7500    0.0000 C   0  0  0  0  0  0  0  0  0 26  0  0
   -1.0323   -0.7500    0.0000 C   0  0  0  0  0  0  0  0  0 27  0  0
    0.8578   -2.6401    0.0000 C   0  0  0  0  0  0  0  0  0 10  0  0
   -2.3313    1.5000    0.0000 C   0  0  0  0  0  0  0  0  0 16  0  0
   -2.3313   -1.5000    0.0000 C   0  0  0  0  0  0  0  0  0 17  0  0
    1.3213   -4.0667    0.0000 H   0  0  0  0  0  0  0  0  0  0  0  0
    2.3303   -2.3539    0.0000 H   0  0  0  0  0  0  0  0  0  0  0  0
   -0.5688   -3.1036    0.0000 H   0  0  0  0  0  0  0  0  0  0  0  0
   -3.6304    0.7500    0.0000 C   0  0  0  0  0  0  0  0  0 13  0  0
   -2.3313    3.0000    0.0000 H   0  0  0  0  0  0  0  0  0  0  0  0
   -3.6304   -0.7500    0.0000 C   0  0  0  0  0  0  0  0  0 23  0  0
   -2.3313   -3.0000    0.0000 H   0  0  0  0  0  0  0  0  0  0  0  0
   -4.9294    1.5000    0.0000 H   0  0  0  0  0  0  0  0  0  0  0  0
   -4.9294   -1.5000    0.0000 O   0  0  0  0  0  0  0  0  0  4  0  0
   -6.2284   -0.7500    0.0000 C   0  0  0  0  0  0  0  0  0  9  0  0
   -7.5275   -0.0000    0.0000 H   0  0  0  0  0  0  0  0  0  0  0  0
   -6.9784   -2.0490    0.0000 H   0  0  0  0  0  0  0  0  0  0  0  0
   -5.4784    0.5490    0.0000 H   0  0  0  0  0  0  0  0  0  0  0  0
    5.0260    1.2990    0.0000 H   0  0  0  0  0  0  0  0  0  0  0  0
  1  2  1  0
  2  3  1  0
  2  4  1  0
  2  5  1  0
  3  6  2  0
  7  3  1  0
  6  8  1  0
  9  7  1  0
  7 10  1  0
  8 11  2  0
  9  8  1  0
 12  9  2  0
 10 13  1  0
 10 14  1  0
 10 15  1  0
 11 16  1  0
 11 17  1  0
 18 12  1  0
 12 19  1  0
 16 18  2  0
 16 20  1  0
 18 21  1  0
 21 22  1  0
 22 23  1  0
 22 24  1  0
 22 25  1  0
  1 26  1  0
M  END
>  <SMILES>  (4) 
COc1ccc2nc(CO)n(C)c2c1

>  <Molecular Weight>  (4) 
192.2

>  <Substrate_ID>  (4) 
MOL0030

>  <Substrate>  (4) 


>  <Substrate_SMILES>  (4) 
COc1ccc2nc(COc3ccc(CC4SC(=O)NC4=O)cc3)n(C)c2c1

>  <Reaction>  (4) 
O-dealkylation_(aromatic)

>  <Score>  (4) 
0.2378

>  <Reaction_Score>  (4) 
0.2209

>  <Bond_Score>  (4) 
0.2559

>  <Rank>  (4) 
3

>  <Subtype>  (4) 
3A4

>  <Subtype_Scores>  (4) 
[3A4] SOM_score: 0.2559, Reaction_score: 0.2209, Score: 0.2378


$$$$
