
     RDKit          2D

 56 60  0  0  0  0  0  0  0  0999 V2000
   -5.2500    3.8971    0.0000 C   0  0  0  0  0  0  0  0  0 27  0  0
   -6.0000    5.1962    0.0000 C   0  0  0  0  0  0  0  0  0 10  0  0
   -6.7500    6.4952    0.0000 O   0  0  0  0  0  0  0  0  0 33  0  0
   -6.0000    2.5981    0.0000 C   0  0  0  0  0  0  0  0  0 16  0  0
   -3.7500    3.8971    0.0000 C   0  0  0  0  0  0  0  0  0 21  0  0
   -5.2500    1.2990    0.0000 C   0  0  0  0  0  0  0  0  0 20  0  0
   -7.5000    2.5981    0.0000 H   0  0  0  0  0  0  0  0  0  0  0  0
   -3.0000    2.5981    0.0000 C   0  0  0  0  0  0  0  0  0 31  0  0
   -3.0000    5.1962    0.0000 H   0  0  0  0  0  0  0  0  0  0  0  0
   -3.7500    1.2990    0.0000 C   0  0  0  0  0  0  0  0  0 30  0  0
   -6.0000   -0.0000    0.0000 H   0  0  0  0  0  0  0  0  0  0  0  0
   -1.5000    2.5981    0.0000 N   0  0  0  0  0  0  0  0  0  9  0  0
   -3.0000    0.0000    0.0000 C   0  0  0  0  0  0  0  0  0 26  0  0
   -0.6183    1.3846    0.0000 N   0  0  0  0  0  0  0  0  0  5  0  0
   -0.6183    3.8116    0.0000 N   0  0  0  0  0  0  0  0  0  6  0  0
   -1.5000    0.0000    0.0000 O   0  0  0  0  0  0  0  0  0  1  0  0
   -3.7500   -1.2990    0.0000 N   0  0  0  0  0  0  0  0  0  7  0  0
    0.8083    1.8481    0.0000 C   0  0  0  0  0  0  0  0  0 14  0  0
    0.8083    3.3481    0.0000 C   0  0  0  0  0  0  0  0  0 15  0  0
   -5.2500   -1.2990    0.0000 C   0  0  0  0  0  0  0  0  0 25  0  0
   -3.0000   -2.5981    0.0000 C   0  0  0  0  0  0  0  0  0 32  0  0
    2.1991    1.2862    0.0000 H   0  0  0  0  0  0  0  0  0  0  0  0
    2.0218    4.2298    0.0000 H   0  0  0  0  0  0  0  0  0  0  0  0
   -6.0000   -2.5981    0.0000 C   0  0  0  0  0  0  0  0  0 22  0  0
   -6.6595   -0.7860    0.0000 H   0  0  0  0  0  0  0  0  0  0  0  0
   -4.9895    0.1782    0.0000 H   0  0  0  0  0  0  0  0  0  0  0  0
   -3.7500   -3.8971    0.0000 C   0  0  0  0  0  0  0  0  0 23  0  0
   -1.8509   -1.6339    0.0000 C   0  0  0  0  0  0  0  0  0 24  0  0
   -1.8509   -3.5623    0.0000 H   0  0  0  0  0  0  0  0  0  0  0  0
   -5.2500   -3.8971    0.0000 O   0  0  0  0  0  0  0  0  0  2  0  0
   -7.1491   -3.5623    0.0000 H   0  0  0  0  0  0  0  0  0  0  0  0
   -7.1491   -1.6339    0.0000 H   0  0  0  0  0  0  0  0  0  0  0  0
   -2.3405   -4.4101    0.0000 H   0  0  0  0  0  0  0  0  0  0  0  0
   -4.0105   -5.3743    0.0000 H   0  0  0  0  0  0  0  0  0  0  0  0
   -0.7019   -0.6697    0.0000 C   0  0  0  0  0  0  0  0  0 28  0  0
   -0.8868   -2.7830    0.0000 H   0  0  0  0  0  0  0  0  0  0  0  0
   -2.3835   -0.5418    0.0000 H   0  0  0  0  0  0  0  0  0  0  0  0
   -0.9623    0.8075    0.0000 C   0  0  0  0  0  0  0  0  0 17  0  0
    0.7077   -1.1827    0.0000 C   0  0  0  0  0  0  0  0  0 19  0  0
    0.1867    1.7717    0.0000 C   0  0  0  0  0  0  0  0  0 11  0  0
   -2.3719    1.3205    0.0000 H   0  0  0  0  0  0  0  0  0  0  0  0
    1.8567   -0.2186    0.0000 C   0  0  0  0  0  0  0  0  0 29  0  0
    0.9681   -2.6600    0.0000 H   0  0  0  0  0  0  0  0  0  0  0  0
    1.5963    1.2586    0.0000 C   0  0  0  0  0  0  0  0  0 18  0  0
    0.2914    3.2680    0.0000 H   0  0  0  0  0  0  0  0  0  0  0  0
    3.2663   -0.7316    0.0000 N   0  0  0  0  0  0  0  0  0  8  0  0
    2.7453    2.2228    0.0000 H   0  0  0  0  0  0  0  0  0  0  0  0
    3.6797   -2.1735    0.0000 N   0  0  0  0  0  0  0  0  0  3  0  0
    4.5098    0.1072    0.0000 N   0  0  0  0  0  0  0  0  0  4  0  0
    5.1788   -2.2258    0.0000 C   0  0  0  0  0  0  0  0  0 12  0  0
    5.6919   -0.8163    0.0000 C   0  0  0  0  0  0  0  0  0 13  0  0
    6.0176   -3.4694    0.0000 H   0  0  0  0  0  0  0  0  0  0  0  0
    7.1337   -0.4028    0.0000 H   0  0  0  0  0  0  0  0  0  0  0  0
   -7.2990    4.4462    0.0000 H   0  0  0  0  0  0  0  0  0  0  0  0
   -4.7010    5.9462    0.0000 H   0  0  0  0  0  0  0  0  0  0  0  0
   -6.0000    7.7942    0.0000 H   0  0  0  0  0  0  0  0  0  0  0  0
  1  2  1  0
  2  3  1  0
  4  1  2  0
  1  5  1  0
  6  4  1  0
  4  7  1  0
  5  8  2  0
  5  9  1  0
 10  6  2  0
  6 11  1  0
  8 12  1  0
  8 10  1  0
 13 10  1  0
 12 14  1  0
 15 12  1  0
 16 13  2  0
 13 17  1  0
 14 18  2  0
 19 15  2  0
 17 20  1  0
 21 17  1  0
 18 19  1  0
 18 22  1  0
 19 23  1  0
 20 24  1  0
 20 25  1  0
 20 26  1  0
 27 21  1  0
 21 28  1  0
 21 29  1  1
 24 30  1  0
 24 31  1  0
 24 32  1  0
 30 27  1  0
 27 33  1  0
 27 34  1  0
 28 35  1  0
 28 36  1  0
 28 37  1  0
 35 38  2  0
 39 35  1  0
 38 40  1  0
 38 41  1  0
 42 39  2  0
 39 43  1  0
 40 44  2  0
 40 45  1  0
 44 42  1  0
 42 46  1  0
 44 47  1  0
 46 48  1  0
 49 46  1  0
 48 50  2  0
 51 49  2  0
 50 51  1  0
 50 52  1  0
 51 53  1  0
  2 54  1  0
  2 55  1  0
  3 56  1  0
M  END
>  <SMILES>  (1) 
O=C(c1ccc(CO)cc1-n1nccn1)N1CCOCC1Cc1cccc(-n2nccn2)c1

>  <Molecular Weight>  (1) 
445.5

>  <Substrate_ID>  (1) 
MOL0067

>  <Substrate>  (1) 


>  <Substrate_SMILES>  (1) 
Cc1ccc(C(=O)N2CCOCC2Cc2cccc(-n3nccn3)c2)c(-n2nccn2)c1

>  <Reaction>  (1) 
benzylic_hydroxylation_(c-CH3),aliphatic hydroxylation

>  <Score>  (1) 
0.5487

>  <Reaction_Score>  (1) 
0.5692

>  <Bond_Score>  (1) 
0.5289

>  <Rank>  (1) 
1

>  <Subtype>  (1) 
2C8, 2C9, 3A4

>  <Subtype_Scores>  (1) 
[2C8] SOM_score: 0.3445, Reaction_score: 0.5692, Score: 0.4428
[2C9] SOM_score: 0.4344, Reaction_score: 0.5692, Score: 0.4973
[3A4] SOM_score: 0.5289, Reaction_score: 0.5692, Score: 0.5487


$$$$

     RDKit          2D

 58 61  0  0  0  0  0  0  0  0999 V2000
    3.0000   -5.1962    0.0000 C   0  0  0  0  0  0  0  0  0 23  0  0
    3.7500   -6.4952    0.0000 O   0  0  0  0  0  0  0  0  0  2  0  0
   -2.9462   -2.3971    0.0000 O   0  0  0  0  0  0  0  0  0 33  0  0
   -1.6471   -3.1471    0.0000 C   0  0  0  0  0  0  0  0  0 22  0  0
    2.2500   -3.8971    0.0000 C   0  0  0  0  0  0  0  0  0 32  0  0
    2.3629   -5.8115    0.0000 H   0  0  0  0  0  0  0  0  0  0  0  0
    4.2990   -4.4462    0.0000 H   0  0  0  0  0  0  0  0  0  0  0  0
    1.5000   -2.5981    0.0000 C   0  0  0  0  0  0  0  0  0 24  0  0
    0.9510   -4.6471    0.0000 N   0  0  0  0  0  0  0  0  0  7  0  0
    3.5490   -3.1471    0.0000 H   0  0  0  0  0  0  0  0  0  0  0  0
    0.7500   -1.2990    0.0000 C   0  0  0  0  0  0  0  0  0 28  0  0
    0.7126   -2.7227    0.0000 H   0  0  0  0  0  0  0  0  0  0  0  0
    2.7990   -1.8481    0.0000 H   0  0  0  0  0  0  0  0  0  0  0  0
    0.9510   -6.1471    0.0000 C   0  0  0  0  0  0  0  0  0 26  0  0
   -0.3481   -3.8971    0.0000 C   0  0  0  0  0  0  0  0  0 25  0  0
    1.5000   -0.0000    0.0000 C   0  0  0  0  0  0  0  0  0 17  0  0
   -0.7500   -1.2990    0.0000 C   0  0  0  0  0  0  0  0  0 19  0  0
    1.7180   -6.5900    0.0000 O   0  0  0  0  0  0  0  0  0  1  0  0
   -0.3481   -6.8971    0.0000 C   0  0  0  0  0  0  0  0  0 30  0  0
   -0.0366   -3.1633    0.0000 H   0  0  0  0  0  0  0  0  0  0  0  0
   -1.2508   -5.0950    0.0000 H   0  0  0  0  0  0  0  0  0  0  0  0
    0.7500    1.2990    0.0000 C   0  0  0  0  0  0  0  0  0 11  0  0
    3.0000   -0.0000    0.0000 H   0  0  0  0  0  0  0  0  0  0  0  0
   -1.5000   -0.0000    0.0000 C   0  0  0  0  0  0  0  0  0 29  0  0
   -1.7920   -2.3780    0.0000 H   0  0  0  0  0  0  0  0  0  0  0  0
   -1.6471   -6.1471    0.0000 C   0  0  0  0  0  0  0  0  0 20  0  0
   -0.3481   -8.3971    0.0000 C   0  0  0  0  0  0  0  0  0 31  0  0
   -0.7500    1.2990    0.0000 C   0  0  0  0  0  0  0  0  0 18  0  0
    1.5000    2.5981    0.0000 H   0  0  0  0  0  0  0  0  0  0  0  0
   -3.0000   -0.0000    0.0000 N   0  0  0  0  0  0  0  0  0  8  0  0
   -2.9462   -6.8971    0.0000 C   0  0  0  0  0  0  0  0  0 16  0  0
   -2.0101   -4.6917    0.0000 H   0  0  0  0  0  0  0  0  0  0  0  0
   -1.6471   -9.1471    0.0000 C   0  0  0  0  0  0  0  0  0 21  0  0
    0.9510   -9.1471    0.0000 N   0  0  0  0  0  0  0  0  0  9  0  0
   -1.5000    2.5981    0.0000 H   0  0  0  0  0  0  0  0  0  0  0  0
   -3.8817   -1.2135    0.0000 N   0  0  0  0  0  0  0  0  0  3  0  0
   -3.8817    1.2135    0.0000 N   0  0  0  0  0  0  0  0  0  4  0  0
   -2.9462   -8.3971    0.0000 C   0  0  0  0  0  0  0  0  0 27  0  0
   -4.2452   -6.1471    0.0000 H   0  0  0  0  0  0  0  0  0  0  0  0
   -1.6471  -10.6471    0.0000 H   0  0  0  0  0  0  0  0  0  0  0  0
    2.3213   -8.5370    0.0000 N   0  0  0  0  0  0  0  0  0  5  0  0
    1.1078  -10.6389    0.0000 N   0  0  0  0  0  0  0  0  0  6  0  0
   -5.3083   -0.7500    0.0000 C   0  0  0  0  0  0  0  0  0 12  0  0
   -5.3083    0.7500    0.0000 C   0  0  0  0  0  0  0  0  0 13  0  0
   -4.2452   -9.1471    0.0000 C   0  0  0  0  0  0  0  0  0 10  0  0
    3.3250   -9.6517    0.0000 C   0  0  0  0  0  0  0  0  0 14  0  0
    2.5750  -10.9508    0.0000 C   0  0  0  0  0  0  0  0  0 15  0  0
   -6.5218   -1.6317    0.0000 H   0  0  0  0  0  0  0  0  0  0  0  0
   -6.5218    1.6317    0.0000 H   0  0  0  0  0  0  0  0  0  0  0  0
   -5.5442   -9.8971    0.0000 H   0  0  0  0  0  0  0  0  0  0  0  0
   -4.9952   -7.8481    0.0000 H   0  0  0  0  0  0  0  0  0  0  0  0
   -3.4952  -10.4462    0.0000 H   0  0  0  0  0  0  0  0  0  0  0  0
    4.8168   -9.4949    0.0000 H   0  0  0  0  0  0  0  0  0  0  0  0
    3.1851  -12.3211    0.0000 H   0  0  0  0  0  0  0  0  0  0  0  0
   -2.5499   -4.3450    0.0000 H   0  0  0  0  0  0  0  0  0  0  0  0
   -1.2337   -1.7052    0.0000 H   0  0  0  0  0  0  0  0  0  0  0  0
    5.2500   -6.4952    0.0000 H   0  0  0  0  0  0  0  0  0  0  0  0
   -4.2452   -3.1471    0.0000 H   0  0  0  0  0  0  0  0  0  0  0  0
  1  2  1  0
  3  4  1  0
  1  5  1  0
  1  6  1  0
  1  7  1  0
  5  8  1  0
  5  9  1  0
  5 10  1  1
  8 11  1  0
  8 12  1  0
  8 13  1  0
 14  9  1  0
  9 15  1  0
 11 16  2  0
 17 11  1  0
 18 14  2  0
 14 19  1  0
 15  4  1  0
 15 20  1  0
 15 21  1  0
 16 22  1  0
 16 23  1  0
 24 17  2  0
 17 25  1  0
 19 26  2  0
 27 19  1  0
 22 28  2  0
 22 29  1  0
 28 24  1  0
 24 30  1  0
 26 31  1  0
 26 32  1  0
 33 27  2  0
 27 34  1  0
 28 35  1  0
 30 36  1  0
 37 30  1  0
 31 38  2  0
 31 39  1  0
 38 33  1  0
 33 40  1  0
 34 41  1  0
 42 34  1  0
 36 43  2  0
 44 37  2  0
 38 45  1  0
 41 46  2  0
 47 42  2  0
 43 44  1  0
 43 48  1  0
 44 49  1  0
 45 50  1  0
 45 51  1  0
 45 52  1  0
 46 47  1  0
 46 53  1  0
 47 54  1  0
  4 55  1  0
  4 56  1  0
  2 57  1  0
  3 58  1  0
M  END
>  <SMILES>  (2) 
Cc1ccc(C(=O)N(CCO)C(CO)Cc2cccc(-n3nccn3)c2)c(-n2nccn2)c1

>  <Molecular Weight>  (2) 
447.5

>  <Substrate_ID>  (2) 
MOL0067

>  <Substrate>  (2) 


>  <Substrate_SMILES>  (2) 
Cc1ccc(C(=O)N2CCOCC2Cc2cccc(-n3nccn3)c2)c(-n2nccn2)c1

>  <Reaction>  (2) 
O-dealkylation_(aliphatic),O-dealkylation_(ether)

>  <Score>  (2) 
0.4239

>  <Reaction_Score>  (2) 
0.3995

>  <Bond_Score>  (2) 
0.4497

>  <Rank>  (2) 
2

>  <Subtype>  (2) 
2C8, 3A4

>  <Subtype_Scores>  (2) 
[2C8] SOM_score: 0.2137, Reaction_score: 0.3995, Score: 0.2922
[3A4] SOM_score: 0.4497, Reaction_score: 0.3995, Score: 0.4239


$$$$

     RDKit          2D

 56 60  0  0  0  0  0  0  0  0999 V2000
    1.5000    0.0000    0.0000 C   0  0  0  0  0  0  0  0  0 22  0  0
    0.7500   -1.2990    0.0000 C   0  0  0  0  0  0  0  0  0 25  0  0
    2.1595   -1.8121    0.0000 O   0  0  0  0  0  0  0  0  0 33  0  0
   -0.7500   -1.2990    0.0000 N   0  0  0  0  0  0  0  0  0  7  0  0
    0.7500    1.2990    0.0000 O   0  0  0  0  0  0  0  0  0  2  0  0
    2.6491    0.9642    0.0000 H   0  0  0  0  0  0  0  0  0  0  0  0
    2.6491   -0.9642    0.0000 H   0  0  0  0  0  0  0  0  0  0  0  0
   -0.7500    1.2990    0.0000 C   0  0  0  0  0  0  0  0  0 23  0  0
   -1.5000    0.0000    0.0000 C   0  0  0  0  0  0  0  0  0 32  0  0
   -2.1595    1.8121    0.0000 H   0  0  0  0  0  0  0  0  0  0  0  0
   -0.4895    2.7762    0.0000 H   0  0  0  0  0  0  0  0  0  0  0  0
   -2.6491   -0.9642    0.0000 C   0  0  0  0  0  0  0  0  0 24  0  0
   -2.6491    0.9642    0.0000 H   0  0  0  0  0  0  0  0  0  0  0  0
   -3.7981   -1.9284    0.0000 C   0  0  0  0  0  0  0  0  0 28  0  0
   -3.4660    0.2938    0.0000 H   0  0  0  0  0  0  0  0  0  0  0  0
   -2.1165   -2.0562    0.0000 H   0  0  0  0  0  0  0  0  0  0  0  0
   -3.5377   -3.4056    0.0000 C   0  0  0  0  0  0  0  0  0 17  0  0
   -5.2077   -1.4153    0.0000 C   0  0  0  0  0  0  0  0  0 19  0  0
   -4.6867   -4.3698    0.0000 C   0  0  0  0  0  0  0  0  0 11  0  0
   -2.1281   -3.9186    0.0000 H   0  0  0  0  0  0  0  0  0  0  0  0
   -6.3567   -2.3795    0.0000 C   0  0  0  0  0  0  0  0  0 29  0  0
   -5.6463    0.0191    0.0000 H   0  0  0  0  0  0  0  0  0  0  0  0
   -6.0963   -3.8567    0.0000 C   0  0  0  0  0  0  0  0  0 18  0  0
   -4.4263   -5.8470    0.0000 H   0  0  0  0  0  0  0  0  0  0  0  0
   -7.7663   -1.8665    0.0000 N   0  0  0  0  0  0  0  0  0  8  0  0
   -7.1192   -4.9538    0.0000 H   0  0  0  0  0  0  0  0  0  0  0  0
   -8.1797   -0.4246    0.0000 N   0  0  0  0  0  0  0  0  0  3  0  0
   -9.0098   -2.7053    0.0000 N   0  0  0  0  0  0  0  0  0  4  0  0
   -9.6788   -0.3722    0.0000 C   0  0  0  0  0  0  0  0  0 12  0  0
  -10.1919   -1.7818    0.0000 C   0  0  0  0  0  0  0  0  0 13  0  0
  -10.5176    0.8713    0.0000 H   0  0  0  0  0  0  0  0  0  0  0  0
  -11.6337   -2.1952    0.0000 H   0  0  0  0  0  0  0  0  0  0  0  0
    0.4895   -2.7762    0.0000 H   0  0  0  0  0  0  0  0  0  0  0  0
   -1.5000   -2.5981    0.0000 C   0  0  0  0  0  0  0  0  0 26  0  0
   -0.7500   -3.8971    0.0000 O   0  0  0  0  0  0  0  0  0  1  0  0
   -3.0000   -2.5981    0.0000 C   0  0  0  0  0  0  0  0  0 30  0  0
   -3.7500   -1.2990    0.0000 C   0  0  0  0  0  0  0  0  0 20  0  0
   -3.7500   -3.8971    0.0000 C   0  0  0  0  0  0  0  0  0 31  0  0
   -5.2500   -1.2990    0.0000 C   0  0  0  0  0  0  0  0  0 16  0  0
   -3.1639    0.0817    0.0000 H   0  0  0  0  0  0  0  0  0  0  0  0
   -5.2500   -3.8971    0.0000 C   0  0  0  0  0  0  0  0  0 21  0  0
   -3.0000   -5.1962    0.0000 N   0  0  0  0  0  0  0  0  0  9  0  0
   -6.0000   -2.5981    0.0000 C   0  0  0  0  0  0  0  0  0 27  0  0
   -5.8361    0.0817    0.0000 H   0  0  0  0  0  0  0  0  0  0  0  0
   -6.0000   -5.1962    0.0000 H   0  0  0  0  0  0  0  0  0  0  0  0
   -1.5082   -5.3529    0.0000 N   0  0  0  0  0  0  0  0  0  5  0  0
   -3.6101   -6.5665    0.0000 N   0  0  0  0  0  0  0  0  0  6  0  0
   -7.5000   -2.5981    0.0000 C   0  0  0  0  0  0  0  0  0 10  0  0
   -1.1963   -6.8202    0.0000 C   0  0  0  0  0  0  0  0  0 14  0  0
   -2.4954   -7.5702    0.0000 C   0  0  0  0  0  0  0  0  0 15  0  0
   -8.9554   -2.9610    0.0000 H   0  0  0  0  0  0  0  0  0  0  0  0
   -7.8630   -1.1427    0.0000 H   0  0  0  0  0  0  0  0  0  0  0  0
   -7.6828   -4.0869    0.0000 H   0  0  0  0  0  0  0  0  0  0  0  0
    0.1740   -7.4303    0.0000 H   0  0  0  0  0  0  0  0  0  0  0  0
   -2.6522   -9.0619    0.0000 H   0  0  0  0  0  0  0  0  0  0  0  0
    2.4200   -3.2893    0.0000 H   0  0  0  0  0  0  0  0  0  0  0  0
  1  2  1  0
  2  3  1  0
  2  4  1  0
  1  5  1  0
  1  6  1  0
  1  7  1  0
  5  8  1  0
  8  9  1  0
  8 10  1  0
  8 11  1  0
  9 12  1  0
  9  4  1  0
  9 13  1  1
 12 14  1  0
 12 15  1  0
 12 16  1  0
 14 17  2  0
 18 14  1  0
 17 19  1  0
 17 20  1  0
 21 18  2  0
 18 22  1  0
 19 23  2  0
 19 24  1  0
 23 21  1  0
 21 25  1  0
 23 26  1  0
 25 27  1  0
 28 25  1  0
 27 29  2  0
 30 28  2  0
 29 30  1  0
 29 31  1  0
 30 32  1  0
  2 33  1  0
 34  4  1  0
 35 34  2  0
 34 36  1  0
 36 37  2  0
 38 36  1  0
 37 39  1  0
 37 40  1  0
 41 38  2  0
 38 42  1  0
 39 43  2  0
 39 44  1  0
 43 41  1  0
 41 45  1  0
 42 46  1  0
 47 42  1  0
 43 48  1  0
 46 49  2  0
 50 47  2  0
 48 51  1  0
 48 52  1  0
 48 53  1  0
 49 50  1  0
 49 54  1  0
 50 55  1  0
  3 56  1  0
M  END
>  <SMILES>  (3) 
Cc1ccc(C(=O)N2C(O)COCC2Cc2cccc(-n3nccn3)c2)c(-n2nccn2)c1

>  <Molecular Weight>  (3) 
445.5

>  <Substrate_ID>  (3) 
MOL0067

>  <Substrate>  (3) 


>  <Substrate_SMILES>  (3) 
Cc1ccc(C(=O)N2CCOCC2Cc2cccc(-n3nccn3)c2)c(-n2nccn2)c1

>  <Reaction>  (3) 
aliphatic_hydroxylation_(sec_carbon_next_to_SP2,in_a_ring),aliphatic hydroxylation

>  <Score>  (3) 
0.3877

>  <Reaction_Score>  (3) 
0.314

>  <Bond_Score>  (3) 
0.4787

>  <Rank>  (3) 
3

>  <Subtype>  (3) 
2C8, 2C9, 3A4

>  <Subtype_Scores>  (3) 
[2C8] SOM_score: 0.2539, Reaction_score: 0.3140, Score: 0.2824
[2C9] SOM_score: 0.2433, Reaction_score: 0.3140, Score: 0.2764
[3A4] SOM_score: 0.4787, Reaction_score: 0.3140, Score: 0.3877


$$$$

     RDKit          2D

 54 58  0  0  0  0  0  0  0  0999 V2000
    1.5000    0.0000    0.0000 C   0  0  0  0  0  0  0  0  0 22  0  0
    0.7500   -1.2990    0.0000 C   0  0  0  0  0  0  0  0  0 25  0  0
    1.5000   -2.5981    0.0000 O   0  0  0  0  0  0  0  0  0 33  0  0
   -0.7500   -1.2990    0.0000 N   0  0  0  0  0  0  0  0  0  7  0  0
    0.7500    1.2990    0.0000 O   0  0  0  0  0  0  0  0  0  2  0  0
    2.6491    0.9642    0.0000 H   0  0  0  0  0  0  0  0  0  0  0  0
    2.6491   -0.9642    0.0000 H   0  0  0  0  0  0  0  0  0  0  0  0
   -0.7500    1.2990    0.0000 C   0  0  0  0  0  0  0  0  0 23  0  0
   -1.5000    0.0000    0.0000 C   0  0  0  0  0  0  0  0  0 32  0  0
   -2.1595    1.8121    0.0000 H   0  0  0  0  0  0  0  0  0  0  0  0
   -0.4895    2.7762    0.0000 H   0  0  0  0  0  0  0  0  0  0  0  0
   -2.6491   -0.9642    0.0000 C   0  0  0  0  0  0  0  0  0 24  0  0
   -2.6491    0.9642    0.0000 H   0  0  0  0  0  0  0  0  0  0  0  0
   -3.7981   -1.9284    0.0000 C   0  0  0  0  0  0  0  0  0 28  0  0
   -3.4660    0.2938    0.0000 H   0  0  0  0  0  0  0  0  0  0  0  0
   -2.1165   -2.0562    0.0000 H   0  0  0  0  0  0  0  0  0  0  0  0
   -3.5377   -3.4056    0.0000 C   0  0  0  0  0  0  0  0  0 17  0  0
   -5.2077   -1.4153    0.0000 C   0  0  0  0  0  0  0  0  0 19  0  0
   -4.6867   -4.3698    0.0000 C   0  0  0  0  0  0  0  0  0 11  0  0
   -2.1281   -3.9186    0.0000 H   0  0  0  0  0  0  0  0  0  0  0  0
   -6.3567   -2.3795    0.0000 C   0  0  0  0  0  0  0  0  0 29  0  0
   -5.6463    0.0191    0.0000 H   0  0  0  0  0  0  0  0  0  0  0  0
   -6.0963   -3.8567    0.0000 C   0  0  0  0  0  0  0  0  0 18  0  0
   -4.4263   -5.8470    0.0000 H   0  0  0  0  0  0  0  0  0  0  0  0
   -7.7663   -1.8665    0.0000 N   0  0  0  0  0  0  0  0  0  8  0  0
   -7.1192   -4.9538    0.0000 H   0  0  0  0  0  0  0  0  0  0  0  0
   -8.1797   -0.4246    0.0000 N   0  0  0  0  0  0  0  0  0  3  0  0
   -9.0098   -2.7053    0.0000 N   0  0  0  0  0  0  0  0  0  4  0  0
   -9.6788   -0.3722    0.0000 C   0  0  0  0  0  0  0  0  0 12  0  0
  -10.1919   -1.7818    0.0000 C   0  0  0  0  0  0  0  0  0 13  0  0
  -10.5176    0.8713    0.0000 H   0  0  0  0  0  0  0  0  0  0  0  0
  -11.6337   -2.1952    0.0000 H   0  0  0  0  0  0  0  0  0  0  0  0
   -1.5000   -2.5981    0.0000 C   0  0  0  0  0  0  0  0  0 26  0  0
   -0.7500   -3.8971    0.0000 O   0  0  0  0  0  0  0  0  0  1  0  0
   -3.0000   -2.5981    0.0000 C   0  0  0  0  0  0  0  0  0 30  0  0
   -3.7500   -1.2990    0.0000 C   0  0  0  0  0  0  0  0  0 20  0  0
   -3.7500   -3.8971    0.0000 C   0  0  0  0  0  0  0  0  0 31  0  0
   -5.2500   -1.2990    0.0000 C   0  0  0  0  0  0  0  0  0 16  0  0
   -3.1639    0.0817    0.0000 H   0  0  0  0  0  0  0  0  0  0  0  0
   -5.2500   -3.8971    0.0000 C   0  0  0  0  0  0  0  0  0 21  0  0
   -3.0000   -5.1962    0.0000 N   0  0  0  0  0  0  0  0  0  9  0  0
   -6.0000   -2.5981    0.0000 C   0  0  0  0  0  0  0  0  0 27  0  0
   -5.8361    0.0817    0.0000 H   0  0  0  0  0  0  0  0  0  0  0  0
   -6.0000   -5.1962    0.0000 H   0  0  0  0  0  0  0  0  0  0  0  0
   -1.5082   -5.3529    0.0000 N   0  0  0  0  0  0  0  0  0  5  0  0
   -3.6101   -6.5665    0.0000 N   0  0  0  0  0  0  0  0  0  6  0  0
   -7.5000   -2.5981    0.0000 C   0  0  0  0  0  0  0  0  0 10  0  0
   -1.1963   -6.8202    0.0000 C   0  0  0  0  0  0  0  0  0 14  0  0
   -2.4954   -7.5702    0.0000 C   0  0  0  0  0  0  0  0  0 15  0  0
   -8.9554   -2.9610    0.0000 H   0  0  0  0  0  0  0  0  0  0  0  0
   -7.8630   -1.1427    0.0000 H   0  0  0  0  0  0  0  0  0  0  0  0
   -7.6828   -4.0869    0.0000 H   0  0  0  0  0  0  0  0  0  0  0  0
    0.1740   -7.4303    0.0000 H   0  0  0  0  0  0  0  0  0  0  0  0
   -2.6522   -9.0619    0.0000 H   0  0  0  0  0  0  0  0  0  0  0  0
  1  2  1  0
  2  3  2  0
  2  4  1  0
  1  5  1  0
  1  6  1  0
  1  7  1  0
  5  8  1  0
  8  9  1  0
  8 10  1  0
  8 11  1  0
  9 12  1  0
  9  4  1  0
  9 13  1  1
 12 14  1  0
 12 15  1  0
 12 16  1  0
 14 17  2  0
 18 14  1  0
 17 19  1  0
 17 20  1  0
 21 18  2  0
 18 22  1  0
 19 23  2  0
 19 24  1  0
 23 21  1  0
 21 25  1  0
 23 26  1  0
 25 27  1  0
 28 25  1  0
 27 29  2  0
 30 28  2  0
 29 30  1  0
 29 31  1  0
 30 32  1  0
 33  4  1  0
 34 33  2  0
 33 35  1  0
 35 36  2  0
 37 35  1  0
 36 38  1  0
 36 39  1  0
 40 37  2  0
 37 41  1  0
 38 42  2  0
 38 43  1  0
 42 40  1  0
 40 44  1  0
 41 45  1  0
 46 41  1  0
 42 47  1  0
 45 48  2  0
 49 46  2  0
 47 50  1  0
 47 51  1  0
 47 52  1  0
 48 49  1  0
 48 53  1  0
 49 54  1  0
M  END
>  <SMILES>  (4) 
Cc1ccc(C(=O)N2C(=O)COCC2Cc2cccc(-n3nccn3)c2)c(-n2nccn2)c1

>  <Molecular Weight>  (4) 
443.5

>  <Substrate_ID>  (4) 
MOL0067

>  <Substrate>  (4) 


>  <Substrate_SMILES>  (4) 
Cc1ccc(C(=O)N2CCOCC2Cc2cccc(-n3nccn3)c2)c(-n2nccn2)c1

>  <Reaction>  (4) 
oxidation_(amine_in_a_ring)

>  <Score>  (4) 
0.3877

>  <Reaction_Score>  (4) 
0.314

>  <Bond_Score>  (4) 
0.4787

>  <Rank>  (4) 
3

>  <Subtype>  (4) 
2C8, 2C9, 3A4

>  <Subtype_Scores>  (4) 
[2C8] SOM_score: 0.2539, Reaction_score: 0.3140, Score: 0.2824
[2C9] SOM_score: 0.2433, Reaction_score: 0.3140, Score: 0.2764
[3A4] SOM_score: 0.4787, Reaction_score: 0.3140, Score: 0.3877


$$$$
