
     RDKit          2D

 36 39  0  0  0  0  0  0  0  0999 V2000
    1.2760    0.0000    0.0000 C   0  0  0  0  0  0  0  0  0 22  0  0
    2.7760    0.0000    0.0000 C   0  0  0  0  0  0  0  0  0  7  0  0
    4.2760    0.0000    0.0000 O   0  0  0  0  0  0  0  0  0 24  0  0
    0.3943    1.2135    0.0000 N   0  0  0  0  0  0  0  0  0  4  0  0
    0.3943   -1.2135    0.0000 N   0  0  0  0  0  0  0  0  0  6  0  0
   -1.0323    0.7500    0.0000 N   0  0  0  0  0  0  0  0  0  5  0  0
   -1.0323   -0.7500    0.0000 C   0  0  0  0  0  0  0  0  0 23  0  0
    0.9214   -2.6179    0.0000 C   0  0  0  0  0  0  0  0  0 21  0  0
   -2.2841   -1.5763    0.0000 C   0  0  0  0  0  0  0  0  0 15  0  0
    2.4212   -2.6403    0.0000 C   0  0  0  0  0  0  0  0  0 14  0  0
    0.1520   -3.9056    0.0000 C   0  0  0  0  0  0  0  0  0 20  0  0
   -2.4186   -3.0703    0.0000 N   0  0  0  0  0  0  0  0  0  3  0  0
   -2.8112   -0.1720    0.0000 H   0  0  0  0  0  0  0  0  0  0  0  0
   -3.7706   -1.7777    0.0000 H   0  0  0  0  0  0  0  0  0  0  0  0
    3.1517   -3.9504    0.0000 C   0  0  0  0  0  0  0  0  0 10  0  0
    3.3418   -1.4560    0.0000 H   0  0  0  0  0  0  0  0  0  0  0  0
    0.8825   -5.2157    0.0000 C   0  0  0  0  0  0  0  0  0 13  0  0
   -1.3344   -4.1069    0.0000 C   0  0  0  0  0  0  0  0  0 16  0  0
    2.3823   -5.2381    0.0000 C   0  0  0  0  0  0  0  0  0 17  0  0
    4.6515   -3.9729    0.0000 H   0  0  0  0  0  0  0  0  0  0  0  0
    0.5601   -5.9447    0.0000 H   0  0  0  0  0  0  0  0  0  0  0  0
   -1.7979   -5.5335    0.0000 C   0  0  0  0  0  0  0  0  0 19  0  0
    3.1128   -6.5482    0.0000 Cl  0  0  0  0  0  0  0  0  0  1  0  0
   -0.7942   -6.6482    0.0000 C   0  0  0  0  0  0  0  0  0 12  0  0
   -3.2652   -5.8454    0.0000 C   0  0  0  0  0  0  0  0  0 18  0  0
   -1.2578   -8.0748    0.0000 C   0  0  0  0  0  0  0  0  0  9  0  0
   -0.0001   -6.5787    0.0000 H   0  0  0  0  0  0  0  0  0  0  0  0
   -3.7287   -7.2719    0.0000 C   0  0  0  0  0  0  0  0  0 11  0  0
   -4.2689   -4.7306    0.0000 F   0  0  0  0  0  0  0  0  0  2  0  0
   -2.7250   -8.3867    0.0000 C   0  0  0  0  0  0  0  0  0  8  0  0
   -0.2541   -9.1895    0.0000 H   0  0  0  0  0  0  0  0  0  0  0  0
   -5.1959   -7.5838    0.0000 H   0  0  0  0  0  0  0  0  0  0  0  0
   -3.1885   -9.8132    0.0000 H   0  0  0  0  0  0  0  0  0  0  0  0
    2.7760    1.5000    0.0000 H   0  0  0  0  0  0  0  0  0  0  0  0
    2.9588   -1.4888    0.0000 H   0  0  0  0  0  0  0  0  0  0  0  0
    5.0260    1.2990    0.0000 H   0  0  0  0  0  0  0  0  0  0  0  0
  1  2  1  0
  2  3  1  0
  4  1  2  0
  1  5  1  0
  6  4  1  0
  5  7  1  0
  5  8  1  0
  7  6  2  0
  9  7  1  0
 10  8  2  0
  8 11  1  0
 12  9  1  0
  9 13  1  0
  9 14  1  0
 15 10  1  0
 10 16  1  0
 11 17  2  0
 11 18  1  0
 18 12  2  0
 19 15  2  0
 15 20  1  0
 17 19  1  0
 17 21  1  0
 18 22  1  0
 23 19  1  0
 22 24  2  0
 25 22  1  0
 24 26  1  0
 24 27  1  0
 28 25  2  0
 25 29  1  0
 26 30  2  0
 26 31  1  0
 30 28  1  0
 28 32  1  0
 30 33  1  0
  2 34  1  0
  2 35  1  0
  3 36  1  0
M  END
>  <SMILES>  (1) 
OCc1nnc2n1-c1ccc(Cl)cc1C(c1ccccc1F)=NC2

>  <Molecular Weight>  (1) 
342.8

>  <Substrate_ID>  (1) 
MOL0041

>  <Substrate>  (1) 


>  <Substrate_SMILES>  (1) 
Cc1nnc2n1-c1ccc(Cl)cc1C(c1ccccc1F)=NC2

>  <Reaction>  (1) 
benzylic_hydroxylation_(c-CH3),aliphatic hydroxylation

>  <Score>  (1) 
0.5419

>  <Reaction_Score>  (1) 
0.5862

>  <Bond_Score>  (1) 
0.501

>  <Rank>  (1) 
1

>  <Subtype>  (1) 
1A2, 2B6, 2C8, 2C9, 2C19, 3A4

>  <Subtype_Scores>  (1) 
[1A2] SOM_score: 0.4209, Reaction_score: 0.5862, Score: 0.4967
[2B6] SOM_score: 0.2453, Reaction_score: 0.5862, Score: 0.3792
[2C8] SOM_score: 0.3050, Reaction_score: 0.5862, Score: 0.4228
[2C9] SOM_score: 0.4077, Reaction_score: 0.5862, Score: 0.4889
[2C19] SOM_score: 0.4146, Reaction_score: 0.5862, Score: 0.4930
[3A4] SOM_score: 0.5010, Reaction_score: 0.5862, Score: 0.5419


$$$$

     RDKit          2D

 36 39  0  0  0  0  0  0  0  0999 V2000
    0.3943    1.2135    0.0000 C   0  0  0  0  0  0  0  0  0 23  0  0
    0.9214    2.6179    0.0000 C   0  0  0  0  0  0  0  0  0 15  0  0
    2.1732    1.7915    0.0000 O   0  0  0  0  0  0  0  0  0 24  0  0
    0.1520    3.9056    0.0000 N   0  0  0  0  0  0  0  0  0  3  0  0
    1.2760    0.0000    0.0000 N   0  0  0  0  0  0  0  0  0  5  0  0
   -1.0323    0.7500    0.0000 N   0  0  0  0  0  0  0  0  0  6  0  0
    0.3943   -1.2135    0.0000 N   0  0  0  0  0  0  0  0  0  4  0  0
   -1.0323   -0.7500    0.0000 C   0  0  0  0  0  0  0  0  0 22  0  0
   -2.2841    1.5763    0.0000 C   0  0  0  0  0  0  0  0  0 21  0  0
   -2.2458   -1.6317    0.0000 C   0  0  0  0  0  0  0  0  0  7  0  0
   -3.5107    0.7129    0.0000 C   0  0  0  0  0  0  0  0  0 14  0  0
   -2.4186    3.0703    0.0000 C   0  0  0  0  0  0  0  0  0 20  0  0
   -3.4593   -2.5134    0.0000 H   0  0  0  0  0  0  0  0  0  0  0  0
   -2.8499   -0.9839    0.0000 H   0  0  0  0  0  0  0  0  0  0  0  0
   -1.3641   -2.8452    0.0000 H   0  0  0  0  0  0  0  0  0  0  0  0
   -4.8718    1.3435    0.0000 C   0  0  0  0  0  0  0  0  0 10  0  0
   -3.5395   -0.1723    0.0000 H   0  0  0  0  0  0  0  0  0  0  0  0
   -3.7796    3.7008    0.0000 C   0  0  0  0  0  0  0  0  0 13  0  0
   -1.3344    4.1069    0.0000 C   0  0  0  0  0  0  0  0  0 16  0  0
   -5.0062    2.8374    0.0000 C   0  0  0  0  0  0  0  0  0 17  0  0
   -6.0983    0.4800    0.0000 H   0  0  0  0  0  0  0  0  0  0  0  0
   -3.9473    4.4802    0.0000 H   0  0  0  0  0  0  0  0  0  0  0  0
   -1.7979    5.5335    0.0000 C   0  0  0  0  0  0  0  0  0 19  0  0
   -6.3673    3.4680    0.0000 Cl  0  0  0  0  0  0  0  0  0  1  0  0
   -0.7942    6.6482    0.0000 C   0  0  0  0  0  0  0  0  0 12  0  0
   -3.2652    5.8454    0.0000 C   0  0  0  0  0  0  0  0  0 18  0  0
   -1.2578    8.0748    0.0000 C   0  0  0  0  0  0  0  0  0  9  0  0
    0.6730    6.3363    0.0000 H   0  0  0  0  0  0  0  0  0  0  0  0
   -3.7287    7.2719    0.0000 C   0  0  0  0  0  0  0  0  0 11  0  0
   -3.8668    5.3224    0.0000 F   0  0  0  0  0  0  0  0  0  2  0  0
   -2.7250    8.3867    0.0000 C   0  0  0  0  0  0  0  0  0  8  0  0
   -0.2541    9.1895    0.0000 H   0  0  0  0  0  0  0  0  0  0  0  0
   -5.1959    7.5838    0.0000 H   0  0  0  0  0  0  0  0  0  0  0  0
   -3.1885    9.8132    0.0000 H   0  0  0  0  0  0  0  0  0  0  0  0
    2.0056    3.6545    0.0000 H   0  0  0  0  0  0  0  0  0  0  0  0
    3.5148    2.4625    0.0000 H   0  0  0  0  0  0  0  0  0  0  0  0
  1  2  1  0
  2  3  1  0
  2  4  1  0
  1  5  2  0
  6  1  1  0
  5  7  1  0
  8  6  1  0
  6  9  1  0
  7  8  2  0
  8 10  1  0
 11  9  2  0
  9 12  1  0
 10 13  1  0
 10 14  1  0
 10 15  1  0
 16 11  1  0
 11 17  1  0
 12 18  2  0
 12 19  1  0
 20 16  2  0
 16 21  1  0
 18 20  1  0
 18 22  1  0
 19 23  1  0
 19  4  2  0
 24 20  1  0
 23 25  2  0
 26 23  1  0
 25 27  1  0
 25 28  1  0
 29 26  2  0
 26 30  1  0
 27 31  2  0
 27 32  1  0
 31 29  1  0
 29 33  1  0
 31 34  1  0
  2 35  1  0
  3 36  1  0
M  END
>  <SMILES>  (2) 
Cc1nnc2n1-c1ccc(Cl)cc1C(c1ccccc1F)=NC2O

>  <Molecular Weight>  (2) 
342.8

>  <Substrate_ID>  (2) 
MOL0041

>  <Substrate>  (2) 


>  <Substrate_SMILES>  (2) 
Cc1nnc2n1-c1ccc(Cl)cc1C(c1ccccc1F)=NC2

>  <Reaction>  (2) 
benzylic_hydroxylation_(c-CH2-N),aliphatic hydroxylation

>  <Score>  (2) 
0.5247

>  <Reaction_Score>  (2) 
0.5458

>  <Bond_Score>  (2) 
0.5044

>  <Rank>  (2) 
2

>  <Subtype>  (2) 
1A2, 2B6, 2C8, 2C9, 2C19, 3A4

>  <Subtype_Scores>  (2) 
[1A2] SOM_score: 0.3577, Reaction_score: 0.5458, Score: 0.4418
[2B6] SOM_score: 0.2325, Reaction_score: 0.5458, Score: 0.3562
[2C8] SOM_score: 0.2181, Reaction_score: 0.5458, Score: 0.3450
[2C9] SOM_score: 0.3071, Reaction_score: 0.5458, Score: 0.4094
[2C19] SOM_score: 0.3988, Reaction_score: 0.5458, Score: 0.4665
[3A4] SOM_score: 0.5044, Reaction_score: 0.5458, Score: 0.5247


$$$$
