
     RDKit          2D

 27 27  0  0  0  0  0  0  0  0999 V2000
    4.5000    0.0000    0.0000 C   0  0  0  0  0  0  0  0  0 11  0  0
    4.5000   -1.5000    0.0000 C   0  0  0  0  0  0  0  0  0  2  0  0
    4.5000   -3.0000    0.0000 O   0  0  0  0  0  0  0  0  0 12  0  0
    6.0000   -0.0000    0.0000 N   0  0  0  0  0  0  0  0  0  1  0  0
    4.5000    1.5000    0.0000 C   0  0  0  0  0  0  0  0  0  3  0  0
    3.0000    0.0000    0.0000 C   0  0  0  0  0  0  0  0  0  9  0  0
    6.9028   -1.1979    0.0000 H   0  0  0  0  0  0  0  0  0  0  0  0
    6.9028    1.1979    0.0000 H   0  0  0  0  0  0  0  0  0  0  0  0
    4.5000    3.0000    0.0000 H   0  0  0  0  0  0  0  0  0  0  0  0
    5.9888    1.6828    0.0000 H   0  0  0  0  0  0  0  0  0  0  0  0
    3.6209    1.6080    0.0000 H   0  0  0  0  0  0  0  0  0  0  0  0
    1.5000    0.0000    0.0000 C   0  0  0  0  0  0  0  0  0 10  0  0
    2.8920   -0.8791    0.0000 H   0  0  0  0  0  0  0  0  0  0  0  0
    2.8920    0.8791    0.0000 H   0  0  0  0  0  0  0  0  0  0  0  0
    0.7500   -1.2990    0.0000 C   0  0  0  0  0  0  0  0  0  7  0  0
    0.7500    1.2990    0.0000 C   0  0  0  0  0  0  0  0  0  8  0  0
   -0.7500   -1.2990    0.0000 C   0  0  0  0  0  0  0  0  0  5  0  0
    1.5000   -2.5981    0.0000 H   0  0  0  0  0  0  0  0  0  0  0  0
   -0.7500    1.2990    0.0000 C   0  0  0  0  0  0  0  0  0  6  0  0
    1.5000    2.5981    0.0000 H   0  0  0  0  0  0  0  0  0  0  0  0
   -1.5000    0.0000    0.0000 C   0  0  0  0  0  0  0  0  0  4  0  0
   -1.5000   -2.5981    0.0000 H   0  0  0  0  0  0  0  0  0  0  0  0
   -1.5000    2.5981    0.0000 H   0  0  0  0  0  0  0  0  0  0  0  0
   -3.0000    0.0000    0.0000 H   0  0  0  0  0  0  0  0  0  0  0  0
    5.9888   -1.6828    0.0000 H   0  0  0  0  0  0  0  0  0  0  0  0
    3.6209   -1.6080    0.0000 H   0  0  0  0  0  0  0  0  0  0  0  0
    3.2010   -3.7500    0.0000 H   0  0  0  0  0  0  0  0  0  0  0  0
  1  2  1  0
  2  3  1  0
  4  1  1  0
  1  5  1  0
  1  6  1  0
  4  7  1  0
  4  8  1  0
  5  9  1  0
  5 10  1  0
  5 11  1  0
  6 12  1  0
  6 13  1  0
  6 14  1  0
 12 15  2  0
 16 12  1  0
 15 17  1  0
 15 18  1  0
 19 16  2  0
 16 20  1  0
 17 21  2  0
 17 22  1  0
 21 19  1  0
 19 23  1  0
 21 24  1  0
  2 25  1  0
  2 26  1  0
  3 27  1  0
M  END
>  <SMILES>  (1) 
CC(N)(CO)Cc1ccccc1

>  <Molecular Weight>  (1) 
165.2

>  <Substrate_ID>  (1) 
MOL0033

>  <Substrate>  (1) 


>  <Substrate_SMILES>  (1) 
CC(C)(N)Cc1ccccc1

>  <Reaction>  (1) 
aliphatic_hydroxylation_(primary_carbon_next_to_quart_carbon),aliphatic hydroxylation

>  <Score>  (1) 
0.2508

>  <Reaction_Score>  (1) 
0.2471

>  <Bond_Score>  (1) 
0.2546

>  <Rank>  (1) 
1

>  <Subtype>  (1) 
2A6, 2E1

>  <Subtype_Scores>  (1) 
[2A6] SOM_score: 0.1599, Reaction_score: 0.2471, Score: 0.1988
[2E1] SOM_score: 0.2546, Reaction_score: 0.2471, Score: 0.2508


$$$$
