
     RDKit          2D

 56 60  0  0  0  0  0  0  0  0999 V2000
   -3.0039    7.7035    0.0000 C   0  0  0  0  0  0  0  0  0 25  0  0
   -4.1905    6.7859    0.0000 C   0  0  0  0  0  0  0  0  0 10  0  0
   -5.3771    5.8684    0.0000 O   0  0  0  0  0  0  0  0  0 33  0  0
   -1.6160    7.1347    0.0000 C   0  0  0  0  0  0  0  0  0 16  0  0
   -3.2053    9.1900    0.0000 C   0  0  0  0  0  0  0  0  0 14  0  0
   -0.4294    8.0523    0.0000 C   0  0  0  0  0  0  0  0  0 28  0  0
   -1.6008    5.9198    0.0000 H   0  0  0  0  0  0  0  0  0  0  0  0
   -2.0187   10.1075    0.0000 C   0  0  0  0  0  0  0  0  0 17  0  0
   -4.5932    9.7588    0.0000 H   0  0  0  0  0  0  0  0  0  0  0  0
    0.9586    7.4834    0.0000 C   0  0  0  0  0  0  0  0  0 24  0  0
   -0.6307    9.5387    0.0000 C   0  0  0  0  0  0  0  0  0 29  0  0
   -2.2200   11.5940    0.0000 H   0  0  0  0  0  0  0  0  0  0  0  0
    1.1600    5.9970    0.0000 N   0  0  0  0  0  0  0  0  0  8  0  0
    2.0245    8.5388    0.0000 O   0  0  0  0  0  0  0  0  0  2  0  0
    0.5559   10.4563    0.0000 N   0  0  0  0  0  0  0  0  0  9  0  0
    2.5865    5.5335    0.0000 C   0  0  0  0  0  0  0  0  0 32  0  0
   -0.0919    5.1707    0.0000 C   0  0  0  0  0  0  0  0  0 23  0  0
    1.9957   10.0356    0.0000 N   0  0  0  0  0  0  0  0  0  5  0  0
    0.5110   11.9556    0.0000 N   0  0  0  0  0  0  0  0  0  6  0  0
    3.1136    4.1291    0.0000 C   0  0  0  0  0  0  0  0  0 20  0  0
    2.7210    7.0274    0.0000 C   0  0  0  0  0  0  0  0  0 11  0  0
    4.0373    5.9145    0.0000 H   0  0  0  0  0  0  0  0  0  0  0  0
   -0.2264    3.6767    0.0000 C   0  0  0  0  0  0  0  0  0 22  0  0
   -1.2959    5.0076    0.0000 H   0  0  0  0  0  0  0  0  0  0  0  0
   -0.6190    6.5750    0.0000 H   0  0  0  0  0  0  0  0  0  0  0  0
    2.8407   11.2750    0.0000 C   0  0  0  0  0  0  0  0  0 12  0  0
    1.9231   12.4616    0.0000 C   0  0  0  0  0  0  0  0  0 13  0  0
    2.3442    2.8415    0.0000 C   0  0  0  0  0  0  0  0  0 21  0  0
    4.4569    4.7967    0.0000 H   0  0  0  0  0  0  0  0  0  0  0  0
    4.3161    3.2324    0.0000 H   0  0  0  0  0  0  0  0  0  0  0  0
    3.0366    8.4939    0.0000 H   0  0  0  0  0  0  0  0  0  0  0  0
    4.2150    6.8930    0.0000 H   0  0  0  0  0  0  0  0  0  0  0  0
    1.7913    7.3502    0.0000 H   0  0  0  0  0  0  0  0  0  0  0  0
    0.8578    2.6401    0.0000 N   0  0  0  0  0  0  0  0  0  7  0  0
   -0.9957    2.3890    0.0000 H   0  0  0  0  0  0  0  0  0  0  0  0
   -1.6988    3.9629    0.0000 H   0  0  0  0  0  0  0  0  0  0  0  0
    4.3400   11.3199    0.0000 H   0  0  0  0  0  0  0  0  0  0  0  0
    2.3437   13.9014    0.0000 H   0  0  0  0  0  0  0  0  0  0  0  0
    3.7037    2.2075    0.0000 H   0  0  0  0  0  0  0  0  0  0  0  0
    2.2098    1.3475    0.0000 H   0  0  0  0  0  0  0  0  0  0  0  0
    0.3943    1.2135    0.0000 C   0  0  0  0  0  0  0  0  0 27  0  0
    1.2760    0.0000    0.0000 O   0  0  0  0  0  0  0  0  0  3  0  0
   -1.0323    0.7500    0.0000 N   0  0  0  0  0  0  0  0  0  4  0  0
    0.3943   -1.2135    0.0000 C   0  0  0  0  0  0  0  0  0 31  0  0
   -1.0323   -0.7500    0.0000 C   0  0  0  0  0  0  0  0  0 30  0  0
    0.7062   -2.6807    0.0000 C   0  0  0  0  0  0  0  0  0 19  0  0
   -2.1470   -1.7537    0.0000 C   0  0  0  0  0  0  0  0  0 18  0  0
   -0.4086   -3.6844    0.0000 C   0  0  0  0  0  0  0  0  0 15  0  0
    2.1328   -3.1443    0.0000 H   0  0  0  0  0  0  0  0  0  0  0  0
   -1.8351   -3.2209    0.0000 C   0  0  0  0  0  0  0  0  0 26  0  0
   -3.5736   -1.2902    0.0000 H   0  0  0  0  0  0  0  0  0  0  0  0
   -0.0967   -5.1517    0.0000 H   0  0  0  0  0  0  0  0  0  0  0  0
   -2.9499   -4.2246    0.0000 Cl  0  0  0  0  0  0  0  0  0  1  0  0
   -5.1081    7.9725    0.0000 H   0  0  0  0  0  0  0  0  0  0  0  0
   -3.2729    5.5993    0.0000 H   0  0  0  0  0  0  0  0  0  0  0  0
   -5.1758    4.3819    0.0000 H   0  0  0  0  0  0  0  0  0  0  0  0
  1  2  1  0
  2  3  1  0
  4  1  2  0
  1  5  1  0
  6  4  1  0
  4  7  1  0
  5  8  2  0
  5  9  1  0
 10  6  1  0
 11  6  2  0
  8 11  1  0
  8 12  1  0
 13 10  1  0
 10 14  2  0
 11 15  1  0
 16 13  1  0
 13 17  1  0
 15 18  1  0
 19 15  1  0
 20 16  1  0
 16 21  1  0
 16 22  1  1
 17 23  1  0
 17 24  1  0
 17 25  1  0
 18 26  2  0
 27 19  2  0
 28 20  1  0
 20 29  1  0
 20 30  1  0
 21 31  1  0
 21 32  1  0
 21 33  1  0
 23 34  1  0
 23 35  1  0
 23 36  1  0
 26 27  1  0
 26 37  1  0
 27 38  1  0
 34 28  1  0
 28 39  1  0
 28 40  1  0
 41 34  1  0
 42 41  1  0
 41 43  2  0
 44 42  1  0
 43 45  1  0
 46 44  2  0
 45 44  1  0
 45 47  2  0
 48 46  1  0
 46 49  1  0
 47 50  1  0
 47 51  1  0
 50 48  2  0
 48 52  1  0
 53 50  1  0
  2 54  1  0
  2 55  1  0
  3 56  1  0
M  END
>  <SMILES>  (1) 
CC1CCN(c2nc3cc(Cl)ccc3o2)CCN1C(=O)c1cc(CO)ccc1-n1nccn1

>  <Molecular Weight>  (1) 
466.9

>  <Substrate_ID>  (1) 
MOL0044

>  <Substrate>  (1) 


>  <Substrate_SMILES>  (1) 
Cc1ccc(-n2nccn2)c(C(=O)N2CCN(c3nc4cc(Cl)ccc4o3)CCC2C)c1

>  <Reaction>  (1) 
benzylic_hydroxylation_(c-CH3),aliphatic hydroxylation

>  <Score>  (1) 
0.5684

>  <Reaction_Score>  (1) 
0.5899

>  <Bond_Score>  (1) 
0.5477

>  <Rank>  (1) 
1

>  <Subtype>  (1) 
2C8, 2C9, 2C19, 2D6, 3A4

>  <Subtype_Scores>  (1) 
[2C8] SOM_score: 0.3716, Reaction_score: 0.5899, Score: 0.4682
[2C9] SOM_score: 0.4641, Reaction_score: 0.5899, Score: 0.5232
[2C19] SOM_score: 0.4526, Reaction_score: 0.5899, Score: 0.5167
[2D6] SOM_score: 0.3268, Reaction_score: 0.5899, Score: 0.4391
[3A4] SOM_score: 0.5477, Reaction_score: 0.5899, Score: 0.5684


$$$$

     RDKit          2D

 56 60  0  0  0  0  0  0  0  0999 V2000
   -0.0919    5.1707    0.0000 C   0  0  0  0  0  0  0  0  0 20  0  0
   -0.2264    3.6767    0.0000 C   0  0  0  0  0  0  0  0  0 21  0  0
   -0.9957    2.3890    0.0000 O   0  0  0  0  0  0  0  0  0 33  0  0
    0.8578    2.6401    0.0000 N   0  0  0  0  0  0  0  0  0  7  0  0
    1.1600    5.9970    0.0000 C   0  0  0  0  0  0  0  0  0 32  0  0
   -1.5918    5.1520    0.0000 H   0  0  0  0  0  0  0  0  0  0  0  0
   -0.4609    5.8773    0.0000 H   0  0  0  0  0  0  0  0  0  0  0  0
    0.0758    7.0336    0.0000 C   0  0  0  0  0  0  0  0  0 11  0  0
    2.5865    5.5335    0.0000 N   0  0  0  0  0  0  0  0  0  8  0  0
    1.9293    7.2847    0.0000 H   0  0  0  0  0  0  0  0  0  0  0  0
   -1.0084    8.0702    0.0000 H   0  0  0  0  0  0  0  0  0  0  0  0
    1.1124    8.1178    0.0000 H   0  0  0  0  0  0  0  0  0  0  0  0
   -0.5413    6.5289    0.0000 H   0  0  0  0  0  0  0  0  0  0  0  0
    3.6231    6.6177    0.0000 C   0  0  0  0  0  0  0  0  0 24  0  0
    3.1136    4.1291    0.0000 C   0  0  0  0  0  0  0  0  0 23  0  0
    3.2025    8.0575    0.0000 O   0  0  0  0  0  0  0  0  0  2  0  0
    5.0804    6.2621    0.0000 C   0  0  0  0  0  0  0  0  0 28  0  0
    2.3442    2.8415    0.0000 C   0  0  0  0  0  0  0  0  0 22  0  0
    4.3655    4.9555    0.0000 H   0  0  0  0  0  0  0  0  0  0  0  0
    4.1978    3.0925    0.0000 H   0  0  0  0  0  0  0  0  0  0  0  0
    5.5010    4.8222    0.0000 C   0  0  0  0  0  0  0  0  0 16  0  0
    6.1170    7.3462    0.0000 C   0  0  0  0  0  0  0  0  0 29  0  0
    3.7037    2.2075    0.0000 H   0  0  0  0  0  0  0  0  0  0  0  0
    2.2098    1.3475    0.0000 H   0  0  0  0  0  0  0  0  0  0  0  0
    6.9582    4.4666    0.0000 C   0  0  0  0  0  0  0  0  0 25  0  0
    4.6043    3.6198    0.0000 H   0  0  0  0  0  0  0  0  0  0  0  0
    7.5742    6.9906    0.0000 C   0  0  0  0  0  0  0  0  0 17  0  0
    5.6963    8.7861    0.0000 N   0  0  0  0  0  0  0  0  0  9  0  0
    7.3789    3.0268    0.0000 C   0  0  0  0  0  0  0  0  0 10  0  0
    7.9948    5.5508    0.0000 C   0  0  0  0  0  0  0  0  0 14  0  0
    8.6108    8.0748    0.0000 H   0  0  0  0  0  0  0  0  0  0  0  0
    4.2842    9.2921    0.0000 N   0  0  0  0  0  0  0  0  0  5  0  0
    6.6139    9.9727    0.0000 N   0  0  0  0  0  0  0  0  0  6  0  0
    7.7995    1.5870    0.0000 H   0  0  0  0  0  0  0  0  0  0  0  0
    8.8187    3.4475    0.0000 H   0  0  0  0  0  0  0  0  0  0  0  0
    5.9391    2.6062    0.0000 H   0  0  0  0  0  0  0  0  0  0  0  0
    9.4521    5.1952    0.0000 H   0  0  0  0  0  0  0  0  0  0  0  0
    4.3291   10.7914    0.0000 C   0  0  0  0  0  0  0  0  0 12  0  0
    5.7689   11.2120    0.0000 C   0  0  0  0  0  0  0  0  0 13  0  0
    3.1425   11.7090    0.0000 H   0  0  0  0  0  0  0  0  0  0  0  0
    6.2749   12.6241    0.0000 H   0  0  0  0  0  0  0  0  0  0  0  0
   -1.6988    3.9629    0.0000 H   0  0  0  0  0  0  0  0  0  0  0  0
    0.3943    1.2135    0.0000 C   0  0  0  0  0  0  0  0  0 27  0  0
    1.2760    0.0000    0.0000 O   0  0  0  0  0  0  0  0  0  3  0  0
   -1.0323    0.7500    0.0000 N   0  0  0  0  0  0  0  0  0  4  0  0
    0.3943   -1.2135    0.0000 C   0  0  0  0  0  0  0  0  0 31  0  0
   -1.0323   -0.7500    0.0000 C   0  0  0  0  0  0  0  0  0 30  0  0
    0.7062   -2.6807    0.0000 C   0  0  0  0  0  0  0  0  0 19  0  0
   -2.1470   -1.7537    0.0000 C   0  0  0  0  0  0  0  0  0 18  0  0
   -0.4086   -3.6844    0.0000 C   0  0  0  0  0  0  0  0  0 15  0  0
    2.1328   -3.1443    0.0000 H   0  0  0  0  0  0  0  0  0  0  0  0
   -1.8351   -3.2209    0.0000 C   0  0  0  0  0  0  0  0  0 26  0  0
   -3.5736   -1.2902    0.0000 H   0  0  0  0  0  0  0  0  0  0  0  0
   -0.0967   -5.1517    0.0000 H   0  0  0  0  0  0  0  0  0  0  0  0
   -2.9499   -4.2246    0.0000 Cl  0  0  0  0  0  0  0  0  0  1  0  0
   -2.4955    2.4115    0.0000 H   0  0  0  0  0  0  0  0  0  0  0  0
  1  2  1  0
  2  3  1  0
  2  4  1  0
  1  5  1  0
  1  6  1  0
  1  7  1  0
  5  8  1  0
  5  9  1  0
  5 10  1  6
  8 11  1  0
  8 12  1  0
  8 13  1  0
  9 14  1  0
  9 15  1  0
 14 16  2  0
 14 17  1  0
 15 18  1  0
 15 19  1  0
 15 20  1  0
 17 21  2  0
 22 17  1  0
 18  4  1  0
 18 23  1  0
 18 24  1  0
 21 25  1  0
 21 26  1  0
 27 22  2  0
 22 28  1  0
 25 29  1  0
 25 30  2  0
 30 27  1  0
 27 31  1  0
 28 32  1  0
 33 28  1  0
 29 34  1  0
 29 35  1  0
 29 36  1  0
 30 37  1  0
 32 38  2  0
 39 33  2  0
 38 39  1  0
 38 40  1  0
 39 41  1  0
  2 42  1  0
 43  4  1  0
 44 43  1  0
 43 45  2  0
 46 44  1  0
 45 47  1  0
 48 46  2  0
 47 46  1  0
 47 49  2  0
 50 48  1  0
 48 51  1  0
 49 52  1  0
 49 53  1  0
 52 50  2  0
 50 54  1  0
 55 52  1  0
  3 56  1  0
M  END
>  <SMILES>  (2) 
Cc1ccc(-n2nccn2)c(C(=O)N2CCN(c3nc4cc(Cl)ccc4o3)C(O)CC2C)c1

>  <Molecular Weight>  (2) 
466.9

>  <Substrate_ID>  (2) 
MOL0044

>  <Substrate>  (2) 


>  <Substrate_SMILES>  (2) 
Cc1ccc(-n2nccn2)c(C(=O)N2CCN(c3nc4cc(Cl)ccc4o3)CCC2C)c1

>  <Reaction>  (2) 
aliphatic_hydroxylation_(sec_carbon_next_to_SP2,in_a_ring),aliphatic hydroxylation

>  <Score>  (2) 
0.2314

>  <Reaction_Score>  (2) 
0.1961

>  <Bond_Score>  (2) 
0.273

>  <Rank>  (2) 
2

>  <Subtype>  (2) 
3A4

>  <Subtype_Scores>  (2) 
[3A4] SOM_score: 0.2730, Reaction_score: 0.1961, Score: 0.2314


$$$$

     RDKit          2D

 54 58  0  0  0  0  0  0  0  0999 V2000
   -0.0919    5.1707    0.0000 C   0  0  0  0  0  0  0  0  0 20  0  0
   -0.2264    3.6767    0.0000 C   0  0  0  0  0  0  0  0  0 21  0  0
   -1.6307    3.1496    0.0000 O   0  0  0  0  0  0  0  0  0 33  0  0
    0.8578    2.6401    0.0000 N   0  0  0  0  0  0  0  0  0  7  0  0
    1.1600    5.9970    0.0000 C   0  0  0  0  0  0  0  0  0 32  0  0
   -1.5783    4.9693    0.0000 H   0  0  0  0  0  0  0  0  0  0  0  0
   -0.4609    5.8773    0.0000 H   0  0  0  0  0  0  0  0  0  0  0  0
    0.0758    7.0336    0.0000 C   0  0  0  0  0  0  0  0  0 11  0  0
    2.5865    5.5335    0.0000 N   0  0  0  0  0  0  0  0  0  8  0  0
    1.9293    7.2847    0.0000 H   0  0  0  0  0  0  0  0  0  0  0  0
   -1.0084    8.0702    0.0000 H   0  0  0  0  0  0  0  0  0  0  0  0
   -0.5413    6.5289    0.0000 H   0  0  0  0  0  0  0  0  0  0  0  0
    1.1124    8.1178    0.0000 H   0  0  0  0  0  0  0  0  0  0  0  0
    3.6231    6.6177    0.0000 C   0  0  0  0  0  0  0  0  0 24  0  0
    3.1136    4.1291    0.0000 C   0  0  0  0  0  0  0  0  0 23  0  0
    3.2025    8.0575    0.0000 O   0  0  0  0  0  0  0  0  0  2  0  0
    5.0804    6.2621    0.0000 C   0  0  0  0  0  0  0  0  0 28  0  0
    2.3442    2.8415    0.0000 C   0  0  0  0  0  0  0  0  0 22  0  0
    4.3655    4.9555    0.0000 H   0  0  0  0  0  0  0  0  0  0  0  0
    4.1978    3.0925    0.0000 H   0  0  0  0  0  0  0  0  0  0  0  0
    5.5010    4.8222    0.0000 C   0  0  0  0  0  0  0  0  0 16  0  0
    6.1170    7.3462    0.0000 C   0  0  0  0  0  0  0  0  0 29  0  0
    3.7037    2.2075    0.0000 H   0  0  0  0  0  0  0  0  0  0  0  0
    2.2098    1.3475    0.0000 H   0  0  0  0  0  0  0  0  0  0  0  0
    6.9582    4.4666    0.0000 C   0  0  0  0  0  0  0  0  0 25  0  0
    4.6043    3.6198    0.0000 H   0  0  0  0  0  0  0  0  0  0  0  0
    7.5742    6.9906    0.0000 C   0  0  0  0  0  0  0  0  0 17  0  0
    5.6963    8.7861    0.0000 N   0  0  0  0  0  0  0  0  0  9  0  0
    7.3789    3.0268    0.0000 C   0  0  0  0  0  0  0  0  0 10  0  0
    7.9948    5.5508    0.0000 C   0  0  0  0  0  0  0  0  0 14  0  0
    8.6108    8.0748    0.0000 H   0  0  0  0  0  0  0  0  0  0  0  0
    4.2842    9.2921    0.0000 N   0  0  0  0  0  0  0  0  0  5  0  0
    6.6139    9.9727    0.0000 N   0  0  0  0  0  0  0  0  0  6  0  0
    7.7995    1.5870    0.0000 H   0  0  0  0  0  0  0  0  0  0  0  0
    8.8187    3.4475    0.0000 H   0  0  0  0  0  0  0  0  0  0  0  0
    5.9391    2.6062    0.0000 H   0  0  0  0  0  0  0  0  0  0  0  0
    9.4521    5.1952    0.0000 H   0  0  0  0  0  0  0  0  0  0  0  0
    4.3291   10.7914    0.0000 C   0  0  0  0  0  0  0  0  0 12  0  0
    5.7689   11.2120    0.0000 C   0  0  0  0  0  0  0  0  0 13  0  0
    3.1425   11.7090    0.0000 H   0  0  0  0  0  0  0  0  0  0  0  0
    6.2749   12.6241    0.0000 H   0  0  0  0  0  0  0  0  0  0  0  0
    0.3943    1.2135    0.0000 C   0  0  0  0  0  0  0  0  0 27  0  0
    1.2760    0.0000    0.0000 O   0  0  0  0  0  0  0  0  0  3  0  0
   -1.0323    0.7500    0.0000 N   0  0  0  0  0  0  0  0  0  4  0  0
    0.3943   -1.2135    0.0000 C   0  0  0  0  0  0  0  0  0 31  0  0
   -1.0323   -0.7500    0.0000 C   0  0  0  0  0  0  0  0  0 30  0  0
    0.7062   -2.6807    0.0000 C   0  0  0  0  0  0  0  0  0 19  0  0
   -2.1470   -1.7537    0.0000 C   0  0  0  0  0  0  0  0  0 18  0  0
   -0.4086   -3.6844    0.0000 C   0  0  0  0  0  0  0  0  0 15  0  0
    2.1328   -3.1443    0.0000 H   0  0  0  0  0  0  0  0  0  0  0  0
   -1.8351   -3.2209    0.0000 C   0  0  0  0  0  0  0  0  0 26  0  0
   -3.5736   -1.2902    0.0000 H   0  0  0  0  0  0  0  0  0  0  0  0
   -0.0967   -5.1517    0.0000 H   0  0  0  0  0  0  0  0  0  0  0  0
   -2.9499   -4.2246    0.0000 Cl  0  0  0  0  0  0  0  0  0  1  0  0
  1  2  1  0
  2  3  2  0
  2  4  1  0
  1  5  1  0
  1  6  1  0
  1  7  1  0
  5  8  1  0
  5  9  1  0
  5 10  1  6
  8 11  1  0
  8 12  1  0
  8 13  1  0
  9 14  1  0
  9 15  1  0
 14 16  2  0
 14 17  1  0
 15 18  1  0
 15 19  1  0
 15 20  1  0
 17 21  2  0
 22 17  1  0
 18  4  1  0
 18 23  1  0
 18 24  1  0
 21 25  1  0
 21 26  1  0
 27 22  2  0
 22 28  1  0
 25 29  1  0
 25 30  2  0
 30 27  1  0
 27 31  1  0
 28 32  1  0
 33 28  1  0
 29 34  1  0
 29 35  1  0
 29 36  1  0
 30 37  1  0
 32 38  2  0
 39 33  2  0
 38 39  1  0
 38 40  1  0
 39 41  1  0
 42  4  1  0
 43 42  1  0
 42 44  2  0
 45 43  1  0
 44 46  1  0
 47 45  2  0
 46 45  1  0
 46 48  2  0
 49 47  1  0
 47 50  1  0
 48 51  1  0
 48 52  1  0
 51 49  2  0
 49 53  1  0
 54 51  1  0
M  END
>  <SMILES>  (3) 
Cc1ccc(-n2nccn2)c(C(=O)N2CCN(c3nc4cc(Cl)ccc4o3)C(=O)CC2C)c1

>  <Molecular Weight>  (3) 
464.9

>  <Substrate_ID>  (3) 
MOL0044

>  <Substrate>  (3) 


>  <Substrate_SMILES>  (3) 
Cc1ccc(-n2nccn2)c(C(=O)N2CCN(c3nc4cc(Cl)ccc4o3)CCC2C)c1

>  <Reaction>  (3) 
oxidation_(amine_in_a_ring)

>  <Score>  (3) 
0.2314

>  <Reaction_Score>  (3) 
0.1961

>  <Bond_Score>  (3) 
0.273

>  <Rank>  (3) 
2

>  <Subtype>  (3) 
3A4

>  <Subtype_Scores>  (3) 
[3A4] SOM_score: 0.2730, Reaction_score: 0.1961, Score: 0.2314


$$$$
