
     RDKit          2D

 55 57  0  0  0  0  0  0  0  0999 V2000
    5.2500    3.8971    0.0000 N   0  0  0  0  0  0  0  0  0  3  0  0
    4.5000    2.5981    0.0000 C   0  0  0  0  0  0  0  0  0 13  0  0
    6.7500    3.8971    0.0000 C   0  0  0  0  0  0  0  0  0 15  0  0
    3.7500    1.2990    0.0000 C   0  0  0  0  0  0  0  0  0 12  0  0
    3.2010    3.3481    0.0000 H   0  0  0  0  0  0  0  0  0  0  0  0
    5.7990    1.8481    0.0000 H   0  0  0  0  0  0  0  0  0  0  0  0
    3.0000    0.0000    0.0000 O   0  0  0  0  0  0  0  0  0  1  0  0
    5.0490    0.5490    0.0000 H   0  0  0  0  0  0  0  0  0  0  0  0
    2.4510    2.0490    0.0000 H   0  0  0  0  0  0  0  0  0  0  0  0
    1.5000    0.0000    0.0000 C   0  0  0  0  0  0  0  0  0 11  0  0
    0.7500   -1.2990    0.0000 C   0  0  0  0  0  0  0  0  0 10  0  0
    0.7500    1.2990    0.0000 C   0  0  0  0  0  0  0  0  0 16  0  0
   -0.7500   -1.2990    0.0000 C   0  0  0  0  0  0  0  0  0  9  0  0
    1.5000   -2.5981    0.0000 H   0  0  0  0  0  0  0  0  0  0  0  0
   -0.7500    1.2990    0.0000 C   0  0  0  0  0  0  0  0  0 17  0  0
    1.5000    2.5981    0.0000 H   0  0  0  0  0  0  0  0  0  0  0  0
   -1.5000    0.0000    0.0000 C   0  0  0  0  0  0  0  0  0  8  0  0
   -0.9697   -2.0653    0.0000 H   0  0  0  0  0  0  0  0  0  0  0  0
   -1.3361    2.6798    0.0000 H   0  0  0  0  0  0  0  0  0  0  0  0
   -3.0000    0.0000    0.0000 C   0  0  0  0  0  0  0  0  0  7  0  0
   -3.7500   -1.2990    0.0000 C   0  0  0  0  0  0  0  0  0  6  0  0
   -3.7500    1.2990    0.0000 C   0  0  0  0  0  0  0  0  0 18  0  0
   -5.2500   -1.2990    0.0000 C   0  0  0  0  0  0  0  0  0  5  0  0
   -3.0000   -2.5981    0.0000 C   0  0  0  0  0  0  0  0  0 24  0  0
   -3.0000    2.5981    0.0000 C   0  0  0  0  0  0  0  0  0 19  0  0
   -5.2500    1.2990    0.0000 C   0  0  0  0  0  0  0  0  0 23  0  0
   -6.7500   -1.2990    0.0000 C   0  0  0  0  0  0  0  0  0  4  0  0
   -5.2500   -2.7990    0.0000 H   0  0  0  0  0  0  0  0  0  0  0  0
   -5.4328    0.1898    0.0000 H   0  0  0  0  0  0  0  0  0  0  0  0
   -3.7500   -3.8971    0.0000 C   0  0  0  0  0  0  0  0  0 25  0  0
   -1.5000   -2.5981    0.0000 C   0  0  0  0  0  0  0  0  0 29  0  0
   -3.7500    3.8971    0.0000 C   0  0  0  0  0  0  0  0  0 20  0  0
   -1.5112    2.7809    0.0000 H   0  0  0  0  0  0  0  0  0  0  0  0
   -6.0000    2.5981    0.0000 C   0  0  0  0  0  0  0  0  0 22  0  0
   -6.2920    0.2201    0.0000 H   0  0  0  0  0  0  0  0  0  0  0  0
   -6.7500   -2.7990    0.0000 H   0  0  0  0  0  0  0  0  0  0  0  0
   -6.9328    0.1898    0.0000 H   0  0  0  0  0  0  0  0  0  0  0  0
   -8.2500   -1.2990    0.0000 H   0  0  0  0  0  0  0  0  0  0  0  0
   -3.0000   -5.1962    0.0000 C   0  0  0  0  0  0  0  0  0 26  0  0
   -5.2500   -3.8971    0.0000 H   0  0  0  0  0  0  0  0  0  0  0  0
   -0.7500   -3.8971    0.0000 C   0  0  0  0  0  0  0  0  0 28  0  0
   -0.4580   -1.5191    0.0000 H   0  0  0  0  0  0  0  0  0  0  0  0
   -5.2500    3.8971    0.0000 C   0  0  0  0  0  0  0  0  0 21  0  0
   -3.0000    5.1962    0.0000 H   0  0  0  0  0  0  0  0  0  0  0  0
   -7.5000    2.5981    0.0000 O   0  0  0  0  0  0  0  0  0  2  0  0
   -1.5000   -5.1962    0.0000 C   0  0  0  0  0  0  0  0  0 27  0  0
   -3.7500   -6.4952    0.0000 H   0  0  0  0  0  0  0  0  0  0  0  0
    0.7500   -3.8971    0.0000 H   0  0  0  0  0  0  0  0  0  0  0  0
   -6.0000    5.1962    0.0000 H   0  0  0  0  0  0  0  0  0  0  0  0
   -8.2500    3.8971    0.0000 H   0  0  0  0  0  0  0  0  0  0  0  0
   -0.7500   -6.4952    0.0000 H   0  0  0  0  0  0  0  0  0  0  0  0
    6.7500    5.3971    0.0000 H   0  0  0  0  0  0  0  0  0  0  0  0
    6.7500    2.3971    0.0000 H   0  0  0  0  0  0  0  0  0  0  0  0
    8.2500    3.8971    0.0000 H   0  0  0  0  0  0  0  0  0  0  0  0
    4.5000    5.1962    0.0000 H   0  0  0  0  0  0  0  0  0  0  0  0
  1  2  1  0
  1  3  1  0
  4  2  1  0
  2  5  1  0
  2  6  1  0
  7  4  1  0
  4  8  1  0
  4  9  1  0
  7 10  1  0
 10 11  2  0
 12 10  1  0
 11 13  1  0
 11 14  1  0
 15 12  2  0
 12 16  1  0
 13 17  2  0
 13 18  1  0
 17 15  1  0
 15 19  1  0
 17 20  1  0
 20 21  2  0
 20 22  1  0
 21 23  1  0
 21 24  1  0
 22 25  2  0
 26 22  1  0
 23 27  1  0
 23 28  1  0
 23 29  1  0
 24 30  2  0
 31 24  1  0
 25 32  1  0
 25 33  1  0
 34 26  2  0
 26 35  1  0
 27 36  1  0
 27 37  1  0
 27 38  1  0
 30 39  1  0
 30 40  1  0
 41 31  2  0
 31 42  1  0
 32 43  2  0
 32 44  1  0
 43 34  1  0
 34 45  1  0
 39 46  2  0
 39 47  1  0
 46 41  1  0
 41 48  1  0
 43 49  1  0
 45 50  1  0
 46 51  1  0
  3 52  1  0
  3 53  1  0
  3 54  1  0
  1 55  1  0
M  END
>  <SMILES>  (1) 
CCC(=C(c1ccc(OCCNC)cc1)c1cccc(O)c1)c1ccccc1

>  <Molecular Weight>  (1) 
373.5

>  <Substrate_ID>  (1) 
MOL0093

>  <Substrate>  (1) 


>  <Substrate_SMILES>  (1) 
CCC(=C(c1ccc(OCCN(C)C)cc1)c1cccc(O)c1)c1ccccc1

>  <Reaction>  (1) 
N-demethylation_(tertiary_amine)

>  <Score>  (1) 
0.8624

>  <Reaction_Score>  (1) 
0.8863

>  <Bond_Score>  (1) 
0.8392

>  <Rank>  (1) 
1

>  <Subtype>  (1) 
1A2, 2B6, 2C8, 2C9, 2C19, 2D6, 3A4

>  <Subtype_Scores>  (1) 
[1A2] SOM_score: 0.6514, Reaction_score: 0.8863, Score: 0.7598
[2B6] SOM_score: 0.4362, Reaction_score: 0.8863, Score: 0.6218
[2C8] SOM_score: 0.5709, Reaction_score: 0.8863, Score: 0.7113
[2C9] SOM_score: 0.4288, Reaction_score: 0.8863, Score: 0.6165
[2C19] SOM_score: 0.6554, Reaction_score: 0.8863, Score: 0.7621
[2D6] SOM_score: 0.6833, Reaction_score: 0.8863, Score: 0.7782
[3A4] SOM_score: 0.8392, Reaction_score: 0.8863, Score: 0.8624


$$$$

     RDKit          2D

 59 61  0  0  0  0  0  0  0  0999 V2000
    1.5000   -2.5981    0.0000 C   0  0  0  0  0  0  0  0  0  7  0  0
    0.7500   -1.2990    0.0000 C   0  0  0  0  0  0  0  0  0 18  0  0
    1.5000    0.0000    0.0000 C   0  0  0  0  0  0  0  0  0 23  0  0
    0.7500    1.2990    0.0000 C   0  0  0  0  0  0  0  0  0 22  0  0
   -0.7500    1.2990    0.0000 C   0  0  0  0  0  0  0  0  0 21  0  0
   -1.5000    2.5981    0.0000 O   0  0  0  0  0  0  0  0  0 30  0  0
   -1.5000    0.0000    0.0000 C   0  0  0  0  0  0  0  0  0 20  0  0
   -0.7500   -1.2990    0.0000 C   0  0  0  0  0  0  0  0  0 19  0  0
    3.0000   -2.5981    0.0000 C   0  0  0  0  0  0  0  0  0  8  0  0
    0.7500   -3.8971    0.0000 C   0  0  0  0  0  0  0  0  0  6  0  0
    3.7500   -1.2990    0.0000 C   0  0  0  0  0  0  0  0  0  9  0  0
    3.7500   -3.8971    0.0000 C   0  0  0  0  0  0  0  0  0 17  0  0
   -0.7500   -3.8971    0.0000 C   0  0  0  0  0  0  0  0  0  5  0  0
    1.5000   -5.1962    0.0000 C   0  0  0  0  0  0  0  0  0 24  0  0
    5.2500   -1.2990    0.0000 C   0  0  0  0  0  0  0  0  0 10  0  0
    3.1639    0.0817    0.0000 H   0  0  0  0  0  0  0  0  0  0  0  0
    5.2500   -3.8971    0.0000 C   0  0  0  0  0  0  0  0  0 16  0  0
    3.5303   -4.6634    0.0000 H   0  0  0  0  0  0  0  0  0  0  0  0
   -2.2500   -3.8971    0.0000 C   0  0  0  0  0  0  0  0  0  4  0  0
   -0.7500   -5.3971    0.0000 H   0  0  0  0  0  0  0  0  0  0  0  0
   -0.9328   -2.4083    0.0000 H   0  0  0  0  0  0  0  0  0  0  0  0
    0.7500   -6.4952    0.0000 C   0  0  0  0  0  0  0  0  0 25  0  0
    3.0000   -5.1962    0.0000 C   0  0  0  0  0  0  0  0  0 29  0  0
    6.0000   -2.5981    0.0000 C   0  0  0  0  0  0  0  0  0 11  0  0
    6.0000    0.0000    0.0000 H   0  0  0  0  0  0  0  0  0  0  0  0
    6.0000   -5.1962    0.0000 H   0  0  0  0  0  0  0  0  0  0  0  0
   -2.2500   -5.3971    0.0000 H   0  0  0  0  0  0  0  0  0  0  0  0
   -2.4328   -2.4083    0.0000 H   0  0  0  0  0  0  0  0  0  0  0  0
   -3.7500   -3.8971    0.0000 H   0  0  0  0  0  0  0  0  0  0  0  0
    1.5000   -7.7942    0.0000 C   0  0  0  0  0  0  0  0  0 26  0  0
   -0.7500   -6.4952    0.0000 H   0  0  0  0  0  0  0  0  0  0  0  0
    3.7500   -6.4952    0.0000 C   0  0  0  0  0  0  0  0  0 28  0  0
    4.0420   -4.1172    0.0000 H   0  0  0  0  0  0  0  0  0  0  0  0
    7.5000   -2.5981    0.0000 O   0  0  0  0  0  0  0  0  0  1  0  0
    3.0000   -7.7942    0.0000 C   0  0  0  0  0  0  0  0  0 27  0  0
    0.7500   -9.0933    0.0000 H   0  0  0  0  0  0  0  0  0  0  0  0
    5.2500   -6.4952    0.0000 H   0  0  0  0  0  0  0  0  0  0  0  0
    8.2500   -1.2990    0.0000 C   0  0  0  0  0  0  0  0  0 12  0  0
    3.7500   -9.0933    0.0000 H   0  0  0  0  0  0  0  0  0  0  0  0
    9.0000    0.0000    0.0000 C   0  0  0  0  0  0  0  0  0 13  0  0
    9.5490   -2.0490    0.0000 H   0  0  0  0  0  0  0  0  0  0  0  0
    6.9510   -0.5490    0.0000 H   0  0  0  0  0  0  0  0  0  0  0  0
    9.7500    1.2990    0.0000 N   0  0  0  0  0  0  0  0  0  3  0  0
   10.2990   -0.7500    0.0000 H   0  0  0  0  0  0  0  0  0  0  0  0
    7.7010    0.7500    0.0000 H   0  0  0  0  0  0  0  0  0  0  0  0
   11.2500    1.2990    0.0000 C   0  0  0  0  0  0  0  0  0 14  0  0
    9.0000    2.5981    0.0000 C   0  0  0  0  0  0  0  0  0 15  0  0
   11.2500    2.7990    0.0000 H   0  0  0  0  0  0  0  0  0  0  0  0
   11.2500   -0.2010    0.0000 H   0  0  0  0  0  0  0  0  0  0  0  0
   12.7500    1.2990    0.0000 H   0  0  0  0  0  0  0  0  0  0  0  0
   10.2990    3.3481    0.0000 H   0  0  0  0  0  0  0  0  0  0  0  0
    7.7010    1.8481    0.0000 H   0  0  0  0  0  0  0  0  0  0  0  0
    8.2500    3.8971    0.0000 H   0  0  0  0  0  0  0  0  0  0  0  0
    2.9888    0.1828    0.0000 H   0  0  0  0  0  0  0  0  0  0  0  0
    1.5000    2.5981    0.0000 O   0  0  0  0  0  0  0  0  0  2  0  0
    3.0000    2.5981    0.0000 H   0  0  0  0  0  0  0  0  0  0  0  0
   -3.0000    0.0000    0.0000 H   0  0  0  0  0  0  0  0  0  0  0  0
   -1.7920   -2.3780    0.0000 H   0  0  0  0  0  0  0  0  0  0  0  0
   -0.7500    3.8971    0.0000 H   0  0  0  0  0  0  0  0  0  0  0  0
  1  2  1  0
  2  3  2  0
  3  4  1  0
  4  5  2  0
  5  6  1  0
  5  7  1  0
  7  8  2  0
  8  2  1  0
  9  1  1  0
  1 10  2  0
 11  9  2  0
  9 12  1  0
 10 13  1  0
 10 14  1  0
 15 11  1  0
 11 16  1  0
 12 17  2  0
 12 18  1  0
 13 19  1  0
 13 20  1  0
 13 21  1  0
 14 22  2  0
 23 14  1  0
 24 15  2  0
 15 25  1  0
 17 24  1  0
 17 26  1  0
 19 27  1  0
 19 28  1  0
 19 29  1  0
 22 30  1  0
 22 31  1  0
 32 23  2  0
 23 33  1  0
 34 24  1  0
 30 35  2  0
 30 36  1  0
 35 32  1  0
 32 37  1  0
 34 38  1  0
 35 39  1  0
 38 40  1  0
 38 41  1  0
 38 42  1  0
 40 43  1  0
 40 44  1  0
 40 45  1  0
 43 46  1  0
 43 47  1  0
 46 48  1  0
 46 49  1  0
 46 50  1  0
 47 51  1  0
 47 52  1  0
 47 53  1  0
  3 54  1  0
  4 55  1  0
 55 56  1  0
  7 57  1  0
  8 58  1  0
  6 59  1  0
M  END
>  <SMILES>  (2) 
CCC(=C(c1ccc(OCCN(C)C)cc1)c1ccc(O)c(O)c1)c1ccccc1

>  <Molecular Weight>  (2) 
403.5

>  <Substrate_ID>  (2) 
MOL0093

>  <Substrate>  (2) 


>  <Substrate_SMILES>  (2) 
CCC(=C(c1ccc(OCCN(C)C)cc1)c1cccc(O)c1)c1ccccc1

>  <Reaction>  (2) 
aromatic_hydroxylation_(para_to_carbon),aromatic hydroxylation

>  <Score>  (2) 
0.3592

>  <Reaction_Score>  (2) 
0.3797

>  <Bond_Score>  (2) 
0.3399

>  <Rank>  (2) 
2

>  <Subtype>  (2) 
1A2, 2C8, 2C9, 2C19, 2D6, 3A4

>  <Subtype_Scores>  (2) 
[1A2] SOM_score: 0.3143, Reaction_score: 0.3797, Score: 0.3454
[2C8] SOM_score: 0.2268, Reaction_score: 0.3797, Score: 0.2935
[2C9] SOM_score: 0.3399, Reaction_score: 0.3797, Score: 0.3592
[2C19] SOM_score: 0.3067, Reaction_score: 0.3797, Score: 0.3412
[2D6] SOM_score: 0.2513, Reaction_score: 0.3797, Score: 0.3089
[3A4] SOM_score: 0.3184, Reaction_score: 0.3797, Score: 0.3477


$$$$

     RDKit          2D

 59 61  0  0  0  0  0  0  0  0999 V2000
    3.0000   -1.0981    0.0000 C   0  0  0  0  0  0  0  0  0  4  0  0
    3.0000   -2.5981    0.0000 C   0  0  0  0  0  0  0  0  0  5  0  0
    4.5000   -2.5981    0.0000 O   0  0  0  0  0  0  0  0  0 30  0  0
    1.5000   -2.5981    0.0000 C   0  0  0  0  0  0  0  0  0  6  0  0
    4.5000   -1.0981    0.0000 H   0  0  0  0  0  0  0  0  0  0  0  0
    1.8211   -0.8041    0.0000 H   0  0  0  0  0  0  0  0  0  0  0  0
    3.0972   -0.3069    0.0000 H   0  0  0  0  0  0  0  0  0  0  0  0
    3.1828   -4.0869    0.0000 H   0  0  0  0  0  0  0  0  0  0  0  0
    0.7500   -3.8971    0.0000 C   0  0  0  0  0  0  0  0  0  7  0  0
    0.7500   -1.2990    0.0000 C   0  0  0  0  0  0  0  0  0 24  0  0
   -0.7500   -3.8971    0.0000 C   0  0  0  0  0  0  0  0  0  8  0  0
    1.5000   -5.1962    0.0000 C   0  0  0  0  0  0  0  0  0 18  0  0
    1.5000    0.0000    0.0000 C   0  0  0  0  0  0  0  0  0 25  0  0
   -0.7500   -1.2990    0.0000 C   0  0  0  0  0  0  0  0  0 29  0  0
   -1.5000   -2.5981    0.0000 C   0  0  0  0  0  0  0  0  0  9  0  0
   -1.5000   -5.1962    0.0000 C   0  0  0  0  0  0  0  0  0 17  0  0
    0.7500   -6.4952    0.0000 C   0  0  0  0  0  0  0  0  0 19  0  0
    3.0000   -5.1962    0.0000 C   0  0  0  0  0  0  0  0  0 23  0  0
    0.7500    1.2990    0.0000 C   0  0  0  0  0  0  0  0  0 26  0  0
    2.2912    0.0972    0.0000 H   0  0  0  0  0  0  0  0  0  0  0  0
   -1.5000    0.0000    0.0000 C   0  0  0  0  0  0  0  0  0 28  0  0
   -1.7920   -2.3780    0.0000 H   0  0  0  0  0  0  0  0  0  0  0  0
   -3.0000   -2.5981    0.0000 C   0  0  0  0  0  0  0  0  0 10  0  0
   -1.0866   -1.1562    0.0000 H   0  0  0  0  0  0  0  0  0  0  0  0
   -3.0000   -5.1962    0.0000 C   0  0  0  0  0  0  0  0  0 16  0  0
   -0.9139   -6.5769    0.0000 H   0  0  0  0  0  0  0  0  0  0  0  0
    1.5000   -7.7942    0.0000 C   0  0  0  0  0  0  0  0  0 20  0  0
   -0.7388   -6.6780    0.0000 H   0  0  0  0  0  0  0  0  0  0  0  0
    3.7500   -6.4952    0.0000 C   0  0  0  0  0  0  0  0  0 22  0  0
    3.9028   -3.9982    0.0000 H   0  0  0  0  0  0  0  0  0  0  0  0
   -0.7500    1.2990    0.0000 C   0  0  0  0  0  0  0  0  0 27  0  0
    1.5000    2.5981    0.0000 H   0  0  0  0  0  0  0  0  0  0  0  0
   -3.0000    0.0000    0.0000 H   0  0  0  0  0  0  0  0  0  0  0  0
   -3.7500   -3.8971    0.0000 C   0  0  0  0  0  0  0  0  0 11  0  0
   -3.7500   -1.2990    0.0000 H   0  0  0  0  0  0  0  0  0  0  0  0
   -3.7500   -6.4952    0.0000 H   0  0  0  0  0  0  0  0  0  0  0  0
    3.0000   -7.7942    0.0000 C   0  0  0  0  0  0  0  0  0 21  0  0
    0.7500   -9.0933    0.0000 H   0  0  0  0  0  0  0  0  0  0  0  0
    5.2500   -6.4952    0.0000 O   0  0  0  0  0  0  0  0  0  2  0  0
   -1.5000    2.5981    0.0000 H   0  0  0  0  0  0  0  0  0  0  0  0
   -5.2500   -3.8971    0.0000 O   0  0  0  0  0  0  0  0  0  1  0  0
    3.7500   -9.0933    0.0000 H   0  0  0  0  0  0  0  0  0  0  0  0
    6.0000   -7.7942    0.0000 H   0  0  0  0  0  0  0  0  0  0  0  0
   -6.0000   -2.5981    0.0000 C   0  0  0  0  0  0  0  0  0 12  0  0
   -6.7500   -1.2990    0.0000 C   0  0  0  0  0  0  0  0  0 13  0  0
   -7.2990   -3.3481    0.0000 H   0  0  0  0  0  0  0  0  0  0  0  0
   -4.7010   -1.8481    0.0000 H   0  0  0  0  0  0  0  0  0  0  0  0
   -7.5000    0.0000    0.0000 N   0  0  0  0  0  0  0  0  0  3  0  0
   -8.0490   -2.0490    0.0000 H   0  0  0  0  0  0  0  0  0  0  0  0
   -5.4510   -0.5490    0.0000 H   0  0  0  0  0  0  0  0  0  0  0  0
   -9.0000   -0.0000    0.0000 C   0  0  0  0  0  0  0  0  0 14  0  0
   -6.7500    1.2990    0.0000 C   0  0  0  0  0  0  0  0  0 15  0  0
   -9.0000    1.5000    0.0000 H   0  0  0  0  0  0  0  0  0  0  0  0
   -9.0000   -1.5000    0.0000 H   0  0  0  0  0  0  0  0  0  0  0  0
  -10.5000   -0.0000    0.0000 H   0  0  0  0  0  0  0  0  0  0  0  0
   -8.0490    2.0490    0.0000 H   0  0  0  0  0  0  0  0  0  0  0  0
   -5.4510    0.5490    0.0000 H   0  0  0  0  0  0  0  0  0  0  0  0
   -6.0000    2.5981    0.0000 H   0  0  0  0  0  0  0  0  0  0  0  0
    5.2500   -3.8971    0.0000 H   0  0  0  0  0  0  0  0  0  0  0  0
  1  2  1  0
  2  3  1  0
  2  4  1  0
  1  5  1  0
  1  6  1  0
  1  7  1  0
  2  8  1  0
  9  4  2  0
  4 10  1  0
 11  9  1  0
  9 12  1  0
 10 13  2  0
 14 10  1  0
 15 11  2  0
 11 16  1  0
 12 17  2  0
 18 12  1  0
 13 19  1  0
 13 20  1  0
 21 14  2  0
 14 22  1  0
 23 15  1  0
 15 24  1  0
 16 25  2  0
 16 26  1  0
 17 27  1  0
 17 28  1  0
 29 18  2  0
 18 30  1  0
 19 31  2  0
 19 32  1  0
 31 21  1  0
 21 33  1  0
 34 23  2  0
 23 35  1  0
 25 34  1  0
 25 36  1  0
 27 37  2  0
 27 38  1  0
 37 29  1  0
 29 39  1  0
 31 40  1  0
 41 34  1  0
 37 42  1  0
 39 43  1  0
 41 44  1  0
 44 45  1  0
 44 46  1  0
 44 47  1  0
 45 48  1  0
 45 49  1  0
 45 50  1  0
 48 51  1  0
 48 52  1  0
 51 53  1  0
 51 54  1  0
 51 55  1  0
 52 56  1  0
 52 57  1  0
 52 58  1  0
  3 59  1  0
M  END
>  <SMILES>  (3) 
CC(O)C(=C(c1ccc(OCCN(C)C)cc1)c1cccc(O)c1)c1ccccc1

>  <Molecular Weight>  (3) 
403.5

>  <Substrate_ID>  (3) 
MOL0093

>  <Substrate>  (3) 


>  <Substrate_SMILES>  (3) 
CCC(=C(c1ccc(OCCN(C)C)cc1)c1cccc(O)c1)c1ccccc1

>  <Reaction>  (3) 
aliphatic_hydroxylation_(sec_carbon_next_to_SP2,not_in_a_ring),aliphatic hydroxylation

>  <Score>  (3) 
0.2152

>  <Reaction_Score>  (3) 
0.2032

>  <Bond_Score>  (3) 
0.2278

>  <Rank>  (3) 
3

>  <Subtype>  (3) 
3A4

>  <Subtype_Scores>  (3) 
[3A4] SOM_score: 0.2278, Reaction_score: 0.2032, Score: 0.2152


$$$$
