
     RDKit          2D

 38 38  0  0  0  0  0  0  0  0999 V2000
    3.0000    0.0000    0.0000 O   0  0  0  0  0  0  0  0  0  2  0  0
    1.5000    0.0000    0.0000 C   0  0  0  0  0  0  0  0  0 18  0  0
    0.7500   -1.2990    0.0000 C   0  0  0  0  0  0  0  0  0 12  0  0
   -0.7500   -1.2990    0.0000 C   0  0  0  0  0  0  0  0  0 11  0  0
   -1.5000    0.0000    0.0000 C   0  0  0  0  0  0  0  0  0 17  0  0
   -0.7500    1.2990    0.0000 C   0  0  0  0  0  0  0  0  0 13  0  0
    0.7500    1.2990    0.0000 C   0  0  0  0  0  0  0  0  0 19  0  0
    1.5000    2.5981    0.0000 O   0  0  0  0  0  0  0  0  0  3  0  0
    1.5000   -2.5981    0.0000 H   0  0  0  0  0  0  0  0  0  0  0  0
   -1.5000   -2.5981    0.0000 H   0  0  0  0  0  0  0  0  0  0  0  0
   -3.0000    0.0000    0.0000 C   0  0  0  0  0  0  0  0  0 10  0  0
   -3.7500    1.2990    0.0000 C   0  0  0  0  0  0  0  0  0  8  0  0
   -3.7500   -1.2990    0.0000 H   0  0  0  0  0  0  0  0  0  0  0  0
   -5.2500    1.2990    0.0000 C   0  0  0  0  0  0  0  0  0  7  0  0
   -3.0000    2.5981    0.0000 H   0  0  0  0  0  0  0  0  0  0  0  0
   -6.0000    2.5981    0.0000 C   0  0  0  0  0  0  0  0  0  9  0  0
   -6.0000    0.0000    0.0000 H   0  0  0  0  0  0  0  0  0  0  0  0
   -7.5000    2.5981    0.0000 C   0  0  0  0  0  0  0  0  0 16  0  0
   -5.2500    3.8971    0.0000 H   0  0  0  0  0  0  0  0  0  0  0  0
   -8.2500    1.2990    0.0000 O   0  0  0  0  0  0  0  0  0  1  0  0
   -8.2500    3.8971    0.0000 N   0  0  0  0  0  0  0  0  0  4  0  0
   -7.5000    5.1962    0.0000 C   0  0  0  0  0  0  0  0  0 15  0  0
   -9.7500    3.8971    0.0000 H   0  0  0  0  0  0  0  0  0  0  0  0
   -6.7500    6.4952    0.0000 C   0  0  0  0  0  0  0  0  0 20  0  0
   -8.3153    5.5422    0.0000 H   0  0  0  0  0  0  0  0  0  0  0  0
   -6.2010    4.4462    0.0000 H   0  0  0  0  0  0  0  0  0  0  0  0
   -8.0490    7.2452    0.0000 C   0  0  0  0  0  0  0  0  0  5  0  0
   -6.0000    7.7942    0.0000 C   0  0  0  0  0  0  0  0  0  6  0  0
   -5.4510    5.7452    0.0000 H   0  0  0  0  0  0  0  0  0  0  0  0
   -8.5821    6.5378    0.0000 H   0  0  0  0  0  0  0  0  0  0  0  0
   -7.7030    8.0605    0.0000 H   0  0  0  0  0  0  0  0  0  0  0  0
   -9.3481    7.9952    0.0000 H   0  0  0  0  0  0  0  0  0  0  0  0
   -6.7074    8.3273    0.0000 H   0  0  0  0  0  0  0  0  0  0  0  0
   -4.7010    7.0442    0.0000 H   0  0  0  0  0  0  0  0  0  0  0  0
   -5.2500    9.0933    0.0000 H   0  0  0  0  0  0  0  0  0  0  0  0
   -1.5000    2.5981    0.0000 H   0  0  0  0  0  0  0  0  0  0  0  0
    3.7500    1.2990    0.0000 H   0  0  0  0  0  0  0  0  0  0  0  0
    3.0000    2.5981    0.0000 H   0  0  0  0  0  0  0  0  0  0  0  0
  1  2  1  0
  2  3  2  0
  3  4  1  0
  4  5  2  0
  5  6  1  0
  6  7  2  0
  7  8  1  0
  7  2  1  0
  3  9  1  0
  4 10  1  0
 11  5  1  0
 12 11  2  0
 11 13  1  0
 14 12  1  0
 12 15  1  0
 16 14  2  0
 14 17  1  0
 18 16  1  0
 16 19  1  0
 20 18  2  0
 18 21  1  0
 21 22  1  0
 21 23  1  0
 22 24  1  0
 22 25  1  0
 22 26  1  0
 24 27  1  0
 24 28  1  0
 24 29  1  0
 27 30  1  0
 27 31  1  0
 27 32  1  0
 28 33  1  0
 28 34  1  0
 28 35  1  0
  6 36  1  0
  1 37  1  0
  8 38  1  0
M  END
>  <SMILES>  (1) 
CC(C)CNC(=O)C=CC=Cc1ccc(O)c(O)c1

>  <Molecular Weight>  (1) 
261.3

>  <Substrate_ID>  (1) 
MOL0065

>  <Substrate>  (1) 


>  <Substrate_SMILES>  (1) 
CC(C)CNC(=O)C=CC=Cc1ccc2c(c1)OCO2

>  <Reaction>  (1) 
O-dealkylation_(methylenedioxyphenyl)a

>  <Score>  (1) 
0.5609

>  <Reaction_Score>  (1) 
0.6213

>  <Bond_Score>  (1) 
0.5064

>  <Rank>  (1) 
1

>  <Subtype>  (1) 
1A2, 2B6, 2C8, 2C9, 2C19, 2D6, 3A4

>  <Subtype_Scores>  (1) 
[1A2] SOM_score: 0.4798, Reaction_score: 0.6213, Score: 0.5460
[2B6] SOM_score: 0.2115, Reaction_score: 0.6213, Score: 0.3624
[2C8] SOM_score: 0.2993, Reaction_score: 0.6213, Score: 0.4312
[2C9] SOM_score: 0.2931, Reaction_score: 0.6213, Score: 0.4267
[2C19] SOM_score: 0.4240, Reaction_score: 0.6213, Score: 0.5132
[2D6] SOM_score: 0.4484, Reaction_score: 0.6213, Score: 0.5278
[3A4] SOM_score: 0.5064, Reaction_score: 0.6213, Score: 0.5609


$$$$
