
     RDKit          2D

 43 45  0  0  0  0  0  0  0  0999 V2000
    3.0000   -5.1962    0.0000 O   0  0  0  0  0  0  0  0  0  4  0  0
    1.5000   -5.1962    0.0000 C   0  0  0  0  0  0  0  0  0 20  0  0
    0.7500   -3.8971    0.0000 C   0  0  0  0  0  0  0  0  0 19  0  0
   -0.7500   -3.8971    0.0000 C   0  0  0  0  0  0  0  0  0 18  0  0
   -1.5000   -5.1962    0.0000 C   0  0  0  0  0  0  0  0  0 24  0  0
   -0.7500   -6.4952    0.0000 C   0  0  0  0  0  0  0  0  0 23  0  0
    0.7500   -6.4952    0.0000 C   0  0  0  0  0  0  0  0  0 21  0  0
    1.5000   -7.7942    0.0000 O   0  0  0  0  0  0  0  0  0  3  0  0
    1.5000   -2.5981    0.0000 H   0  0  0  0  0  0  0  0  0  0  0  0
   -1.5000   -2.5981    0.0000 O   0  0  0  0  0  0  0  0  0  2  0  0
   -3.0000   -2.5981    0.0000 C   0  0  0  0  0  0  0  0  0 17  0  0
   -4.5000   -2.5981    0.0000 C   0  0  0  0  0  0  0  0  0 16  0  0
   -2.9028   -3.3893    0.0000 H   0  0  0  0  0  0  0  0  0  0  0  0
   -2.6370   -1.1427    0.0000 H   0  0  0  0  0  0  0  0  0  0  0  0
   -4.2395   -4.0753    0.0000 C   0  0  0  0  0  0  0  0  0 15  0  0
   -5.9095   -2.0850    0.0000 C   0  0  0  0  0  0  0  0  0 12  0  0
   -3.8898   -1.2278    0.0000 H   0  0  0  0  0  0  0  0  0  0  0  0
   -5.3886   -5.0395    0.0000 N   0  0  0  0  0  0  0  0  0  5  0  0
   -3.6535   -5.4561    0.0000 H   0  0  0  0  0  0  0  0  0  0  0  0
   -3.4628   -3.8960    0.0000 H   0  0  0  0  0  0  0  0  0  0  0  0
   -5.1595   -0.7860    0.0000 C   0  0  0  0  0  0  0  0  0  9  0  0
   -7.0586   -3.0492    0.0000 C   0  0  0  0  0  0  0  0  0 13  0  0
   -7.0586   -1.1209    0.0000 H   0  0  0  0  0  0  0  0  0  0  0  0
   -6.7981   -4.5264    0.0000 C   0  0  0  0  0  0  0  0  0 14  0  0
   -5.1281   -6.5167    0.0000 H   0  0  0  0  0  0  0  0  0  0  0  0
   -3.6595   -0.7860    0.0000 C   0  0  0  0  0  0  0  0  0  8  0  0
   -5.9095    0.5130    0.0000 C   0  0  0  0  0  0  0  0  0 10  0  0
   -7.8086   -1.7502    0.0000 H   0  0  0  0  0  0  0  0  0  0  0  0
   -8.4681   -3.5623    0.0000 H   0  0  0  0  0  0  0  0  0  0  0  0
   -8.2981   -4.5264    0.0000 H   0  0  0  0  0  0  0  0  0  0  0  0
   -7.0586   -6.0037    0.0000 H   0  0  0  0  0  0  0  0  0  0  0  0
   -2.9095    0.5130    0.0000 C   0  0  0  0  0  0  0  0  0  7  0  0
   -2.6175   -1.8650    0.0000 H   0  0  0  0  0  0  0  0  0  0  0  0
   -5.1595    1.8121    0.0000 C   0  0  0  0  0  0  0  0  0 11  0  0
   -7.4095    0.5130    0.0000 H   0  0  0  0  0  0  0  0  0  0  0  0
   -3.6595    1.8121    0.0000 C   0  0  0  0  0  0  0  0  0  6  0  0
   -1.4095    0.5130    0.0000 H   0  0  0  0  0  0  0  0  0  0  0  0
   -5.9095    3.1111    0.0000 H   0  0  0  0  0  0  0  0  0  0  0  0
   -2.9095    3.1111    0.0000 F   0  0  0  0  0  0  0  0  0  1  0  0
   -2.9888   -5.3790    0.0000 H   0  0  0  0  0  0  0  0  0  0  0  0
   -1.5000   -7.7942    0.0000 H   0  0  0  0  0  0  0  0  0  0  0  0
    3.7500   -3.8971    0.0000 H   0  0  0  0  0  0  0  0  0  0  0  0
    3.0000   -7.7942    0.0000 H   0  0  0  0  0  0  0  0  0  0  0  0
  1  2  1  0
  2  3  2  0
  3  4  1  0
  4  5  2  0
  5  6  1  0
  6  7  2  0
  7  8  1  0
  7  2  1  0
  3  9  1  0
 10  4  1  0
 11 10  1  0
 12 11  1  0
 11 13  1  0
 11 14  1  0
 15 12  1  0
 12 16  1  0
 12 17  1  1
 18 15  1  0
 15 19  1  0
 15 20  1  0
 21 16  1  0
 16 22  1  0
 16 23  1  6
 24 18  1  0
 18 25  1  0
 26 21  2  0
 21 27  1  0
 22 24  1  0
 22 28  1  0
 22 29  1  0
 24 30  1  0
 24 31  1  0
 32 26  1  0
 26 33  1  0
 27 34  2  0
 27 35  1  0
 36 32  2  0
 32 37  1  0
 34 36  1  0
 34 38  1  0
 39 36  1  0
  5 40  1  0
  6 41  1  0
  1 42  1  0
  8 43  1  0
M  END
>  <SMILES>  (1) 
Oc1ccc(OCC2CNCCC2c2ccc(F)cc2)cc1O

>  <Molecular Weight>  (1) 
317.4

>  <Substrate_ID>  (1) 
MOL0094

>  <Substrate>  (1) 


>  <Substrate_SMILES>  (1) 
Fc1ccc(C2CCNCC2COc2ccc3c(c2)OCO3)cc1

>  <Reaction>  (1) 
O-dealkylation_(methylenedioxyphenyl)a

>  <Score>  (1) 
0.798

>  <Reaction_Score>  (1) 
0.8378

>  <Bond_Score>  (1) 
0.7601

>  <Rank>  (1) 
1

>  <Subtype>  (1) 
1A2, 2B6, 2C8, 2C9, 2C19, 2D6, 3A4

>  <Subtype_Scores>  (1) 
[1A2] SOM_score: 0.6843, Reaction_score: 0.8378, Score: 0.7572
[2B6] SOM_score: 0.4724, Reaction_score: 0.8378, Score: 0.6291
[2C8] SOM_score: 0.5844, Reaction_score: 0.8378, Score: 0.6997
[2C9] SOM_score: 0.4540, Reaction_score: 0.8378, Score: 0.6167
[2C19] SOM_score: 0.6756, Reaction_score: 0.8378, Score: 0.7523
[2D6] SOM_score: 0.6836, Reaction_score: 0.8378, Score: 0.7568
[3A4] SOM_score: 0.7601, Reaction_score: 0.8378, Score: 0.7980


$$$$
