
     RDKit          2D

 44 46  0  0  0  0  0  0  0  0999 V2000
    8.6575    5.6260    0.0000 C   0  0  0  0  0  0  0  0  0 19  0  0
   10.1247    5.9379    0.0000 C   0  0  0  0  0  0  0  0  0  8  0  0
   11.5919    6.2498    0.0000 O   0  0  0  0  0  0  0  0  0 23  0  0
    8.1939    4.1994    0.0000 C   0  0  0  0  0  0  0  0  0  9  0  0
    7.6538    6.7407    0.0000 C   0  0  0  0  0  0  0  0  0 10  0  0
    6.7267    3.8876    0.0000 C   0  0  0  0  0  0  0  0  0 11  0  0
    9.1976    3.0847    0.0000 H   0  0  0  0  0  0  0  0  0  0  0  0
    6.1865    6.4289    0.0000 C   0  0  0  0  0  0  0  0  0 12  0  0
    8.1173    8.1673    0.0000 H   0  0  0  0  0  0  0  0  0  0  0  0
    5.7230    5.0023    0.0000 C   0  0  0  0  0  0  0  0  0 20  0  0
    6.2632    2.4610    0.0000 H   0  0  0  0  0  0  0  0  0  0  0  0
    5.1828    7.5436    0.0000 H   0  0  0  0  0  0  0  0  0  0  0  0
    4.2558    4.6904    0.0000 S   0  0  0  0  0  6  0  0  0  1  0  0
    4.5677    3.2232    0.0000 O   0  0  0  0  0  0  0  0  0  3  0  0
    3.9439    6.1577    0.0000 O   0  0  0  0  0  0  0  0  0  4  0  0
    2.7886    4.3786    0.0000 N   0  0  0  0  0  0  0  0  0  6  0  0
    2.3250    2.9520    0.0000 C   0  0  0  0  0  0  0  0  0 18  0  0
    1.7849    5.4933    0.0000 H   0  0  0  0  0  0  0  0  0  0  0  0
    3.3287    1.8373    0.0000 O   0  0  0  0  0  0  0  0  0  2  0  0
    0.8578    2.6401    0.0000 N   0  0  0  0  0  0  0  0  0  5  0  0
    0.3943    1.2135    0.0000 N   0  0  0  0  0  0  0  0  0  7  0  0
   -0.1459    3.7548    0.0000 H   0  0  0  0  0  0  0  0  0  0  0  0
    1.2760    0.0000    0.0000 C   0  0  0  0  0  0  0  0  0 16  0  0
   -1.0323    0.7500    0.0000 C   0  0  0  0  0  0  0  0  0 17  0  0
    0.3943   -1.2135    0.0000 C   0  0  0  0  0  0  0  0  0 21  0  0
    2.3907    1.0037    0.0000 H   0  0  0  0  0  0  0  0  0  0  0  0
    2.5047   -0.8603    0.0000 H   0  0  0  0  0  0  0  0  0  0  0  0
   -1.0323   -0.7500    0.0000 C   0  0  0  0  0  0  0  0  0 22  0  0
   -2.5321    0.7762    0.0000 H   0  0  0  0  0  0  0  0  0  0  0  0
   -1.3442    2.2172    0.0000 H   0  0  0  0  0  0  0  0  0  0  0  0
    0.3943   -2.7135    0.0000 C   0  0  0  0  0  0  0  0  0 14  0  0
    1.8209   -1.6771    0.0000 H   0  0  0  0  0  0  0  0  0  0  0  0
   -1.9140   -1.9635    0.0000 C   0  0  0  0  0  0  0  0  0 15  0  0
   -2.4589   -0.2865    0.0000 H   0  0  0  0  0  0  0  0  0  0  0  0
   -1.0323   -3.1771    0.0000 C   0  0  0  0  0  0  0  0  0 13  0  0
    1.8941   -2.7397    0.0000 H   0  0  0  0  0  0  0  0  0  0  0  0
    0.7062   -4.1807    0.0000 H   0  0  0  0  0  0  0  0  0  0  0  0
   -3.0287   -2.9672    0.0000 H   0  0  0  0  0  0  0  0  0  0  0  0
   -3.1427   -1.1032    0.0000 H   0  0  0  0  0  0  0  0  0  0  0  0
   -0.4222   -4.5474    0.0000 H   0  0  0  0  0  0  0  0  0  0  0  0
   -2.3313   -3.9271    0.0000 H   0  0  0  0  0  0  0  0  0  0  0  0
   10.4365    4.4707    0.0000 H   0  0  0  0  0  0  0  0  0  0  0  0
    9.8128    7.4051    0.0000 H   0  0  0  0  0  0  0  0  0  0  0  0
   12.0554    7.6764    0.0000 H   0  0  0  0  0  0  0  0  0  0  0  0
  1  2  1  0
  2  3  1  0
  4  1  2  0
  1  5  1  0
  6  4  1  0
  4  7  1  0
  5  8  2  0
  5  9  1  0
 10  6  2  0
  6 11  1  0
  8 10  1  0
  8 12  1  0
 13 10  1  0
 13 14  2  0
 13 15  2  0
 13 16  1  0
 16 17  1  0
 16 18  1  0
 17 19  2  0
 17 20  1  0
 20 21  1  0
 20 22  1  0
 21 23  1  0
 24 21  1  0
 23 25  1  0
 23 26  1  0
 23 27  1  0
 28 24  1  0
 24 29  1  0
 24 30  1  0
 25 31  1  0
 28 25  1  0
 25 32  1  6
 33 28  1  0
 28 34  1  6
 31 35  1  0
 31 36  1  0
 31 37  1  0
 35 33  1  0
 33 38  1  0
 33 39  1  0
 35 40  1  0
 35 41  1  0
  2 42  1  0
  2 43  1  0
  3 44  1  0
M  END
>  <SMILES>  (1) 
O=C(NN1CC2CCCC2C1)NS(=O)(=O)c1ccc(CO)cc1

>  <Molecular Weight>  (1) 
339.4

>  <Substrate_ID>  (1) 
MOL0003

>  <Substrate>  (1) 


>  <Substrate_SMILES>  (1) 
Cc1ccc(S(=O)(=O)NC(=O)NN2CC3CCCC3C2)cc1

>  <Reaction>  (1) 
benzylic_hydroxylation_(c-CH3),aliphatic hydroxylation

>  <Score>  (1) 
0.589

>  <Reaction_Score>  (1) 
0.6229

>  <Bond_Score>  (1) 
0.5569

>  <Rank>  (1) 
1

>  <Subtype>  (1) 
1A2, 2B6, 2C8, 2C9, 2C19, 2D6, 3A4

>  <Subtype_Scores>  (1) 
[1A2] SOM_score: 0.5270, Reaction_score: 0.6229, Score: 0.5730
[2B6] SOM_score: 0.3250, Reaction_score: 0.6229, Score: 0.4500
[2C8] SOM_score: 0.4518, Reaction_score: 0.6229, Score: 0.5305
[2C9] SOM_score: 0.5359, Reaction_score: 0.6229, Score: 0.5778
[2C19] SOM_score: 0.5569, Reaction_score: 0.6229, Score: 0.5890
[2D6] SOM_score: 0.4072, Reaction_score: 0.6229, Score: 0.5037
[3A4] SOM_score: 0.5506, Reaction_score: 0.6229, Score: 0.5857


$$$$

     RDKit          2D

 44 46  0  0  0  0  0  0  0  0999 V2000
    1.2760    0.0000    0.0000 C   0  0  0  0  0  0  0  0  0 14  0  0
    0.3943    1.2135    0.0000 C   0  0  0  0  0  0  0  0  0 13  0  0
   -0.2158    2.5838    0.0000 O   0  0  0  0  0  0  0  0  0 23  0  0
   -1.0323    0.7500    0.0000 C   0  0  0  0  0  0  0  0  0 15  0  0
    0.3943   -1.2135    0.0000 C   0  0  0  0  0  0  0  0  0 21  0  0
    2.3907    1.0037    0.0000 H   0  0  0  0  0  0  0  0  0  0  0  0
    2.5047   -0.8603    0.0000 H   0  0  0  0  0  0  0  0  0  0  0  0
    0.3943   -2.7135    0.0000 C   0  0  0  0  0  0  0  0  0 16  0  0
   -1.0323   -0.7500    0.0000 C   0  0  0  0  0  0  0  0  0 22  0  0
    1.8209   -1.6771    0.0000 H   0  0  0  0  0  0  0  0  0  0  0  0
   -1.0323   -3.1771    0.0000 N   0  0  0  0  0  0  0  0  0  7  0  0
    1.8941   -2.7397    0.0000 H   0  0  0  0  0  0  0  0  0  0  0  0
    0.7062   -4.1807    0.0000 H   0  0  0  0  0  0  0  0  0  0  0  0
   -1.9140   -1.9635    0.0000 C   0  0  0  0  0  0  0  0  0 17  0  0
   -2.4589   -0.2865    0.0000 H   0  0  0  0  0  0  0  0  0  0  0  0
   -1.4958   -4.6036    0.0000 N   0  0  0  0  0  0  0  0  0  5  0  0
   -3.0287   -2.9672    0.0000 H   0  0  0  0  0  0  0  0  0  0  0  0
   -3.1427   -1.1032    0.0000 H   0  0  0  0  0  0  0  0  0  0  0  0
   -2.9630   -4.9155    0.0000 C   0  0  0  0  0  0  0  0  0 18  0  0
   -0.4921   -5.7184    0.0000 H   0  0  0  0  0  0  0  0  0  0  0  0
   -3.4266   -6.3421    0.0000 N   0  0  0  0  0  0  0  0  0  6  0  0
   -3.9667   -3.8008    0.0000 O   0  0  0  0  0  0  0  0  0  2  0  0
   -4.8938   -6.6540    0.0000 S   0  0  0  0  0  6  0  0  0  1  0  0
   -2.4229   -7.4568    0.0000 H   0  0  0  0  0  0  0  0  0  0  0  0
   -5.2056   -5.1867    0.0000 O   0  0  0  0  0  0  0  0  0  3  0  0
   -4.5819   -8.1212    0.0000 O   0  0  0  0  0  0  0  0  0  4  0  0
   -6.3610   -6.9658    0.0000 C   0  0  0  0  0  0  0  0  0 20  0  0
   -7.3647   -5.8511    0.0000 C   0  0  0  0  0  0  0  0  0 11  0  0
   -6.8245   -8.3924    0.0000 C   0  0  0  0  0  0  0  0  0 12  0  0
   -8.8319   -6.1630    0.0000 C   0  0  0  0  0  0  0  0  0  9  0  0
   -6.9012   -4.4245    0.0000 H   0  0  0  0  0  0  0  0  0  0  0  0
   -8.2917   -8.7043    0.0000 C   0  0  0  0  0  0  0  0  0 10  0  0
   -5.8208   -9.5071    0.0000 H   0  0  0  0  0  0  0  0  0  0  0  0
   -9.2954   -7.5896    0.0000 C   0  0  0  0  0  0  0  0  0 19  0  0
   -9.8356   -5.0483    0.0000 H   0  0  0  0  0  0  0  0  0  0  0  0
   -8.7553  -10.1309    0.0000 H   0  0  0  0  0  0  0  0  0  0  0  0
  -10.7627   -7.9014    0.0000 C   0  0  0  0  0  0  0  0  0  8  0  0
  -12.2299   -8.2133    0.0000 H   0  0  0  0  0  0  0  0  0  0  0  0
  -11.0745   -6.4342    0.0000 H   0  0  0  0  0  0  0  0  0  0  0  0
  -10.4508   -9.3686    0.0000 H   0  0  0  0  0  0  0  0  0  0  0  0
    1.6933    1.9635    0.0000 H   0  0  0  0  0  0  0  0  0  0  0  0
   -2.5321    0.7762    0.0000 H   0  0  0  0  0  0  0  0  0  0  0  0
   -1.3442    2.2172    0.0000 H   0  0  0  0  0  0  0  0  0  0  0  0
    0.6659    3.7974    0.0000 H   0  0  0  0  0  0  0  0  0  0  0  0
  1  2  1  0
  2  3  1  0
  2  4  1  0
  5  1  1  0
  1  6  1  0
  1  7  1  0
  8  5  1  0
  9  5  1  0
  5 10  1  1
 11  8  1  0
  8 12  1  0
  8 13  1  0
  4  9  1  0
  9 14  1  0
  9 15  1  1
 16 11  1  0
 14 11  1  0
 14 17  1  0
 14 18  1  0
 19 16  1  0
 16 20  1  0
 21 19  1  0
 19 22  2  0
 23 21  1  0
 21 24  1  0
 23 25  2  0
 23 26  2  0
 23 27  1  0
 27 28  2  0
 29 27  1  0
 28 30  1  0
 28 31  1  0
 32 29  2  0
 29 33  1  0
 30 34  2  0
 30 35  1  0
 34 32  1  0
 32 36  1  0
 34 37  1  0
 37 38  1  0
 37 39  1  0
 37 40  1  0
  2 41  1  0
  4 42  1  0
  4 43  1  0
  3 44  1  0
M  END
>  <SMILES>  (2) 
Cc1ccc(S(=O)(=O)NC(=O)NN2CC3CC(O)CC3C2)cc1

>  <Molecular Weight>  (2) 
339.4

>  <Substrate_ID>  (2) 
MOL0003

>  <Substrate>  (2) 


>  <Substrate_SMILES>  (2) 
Cc1ccc(S(=O)(=O)NC(=O)NN2CC3CCCC3C2)cc1

>  <Reaction>  (2) 
aliphatic_hydroxylation_(sec_carbon_in_a_ringA),aliphatic hydroxylation

>  <Score>  (2) 
0.3294

>  <Reaction_Score>  (2) 
0.3567

>  <Bond_Score>  (2) 
0.3043

>  <Rank>  (2) 
2

>  <Subtype>  (2) 
2C8, 3A4

>  <Subtype_Scores>  (2) 
[2C8] SOM_score: 0.1476, Reaction_score: 0.3567, Score: 0.2295
[3A4] SOM_score: 0.3043, Reaction_score: 0.3567, Score: 0.3294


$$$$

     RDKit          2D

 44 46  0  0  0  0  0  0  0  0999 V2000
    1.2760    0.0000    0.0000 C   0  0  0  0  0  0  0  0  0 14  0  0
    2.3907    1.0037    0.0000 O   0  0  0  0  0  0  0  0  0 23  0  0
    3.8173    0.5402    0.0000 H   0  0  0  0  0  0  0  0  0  0  0  0
    0.3943    1.2135    0.0000 C   0  0  0  0  0  0  0  0  0 21  0  0
    0.3943   -1.2135    0.0000 C   0  0  0  0  0  0  0  0  0 13  0  0
    2.3907   -1.0037    0.0000 H   0  0  0  0  0  0  0  0  0  0  0  0
    0.3943    2.7135    0.0000 C   0  0  0  0  0  0  0  0  0 16  0  0
   -1.0323    0.7500    0.0000 C   0  0  0  0  0  0  0  0  0 22  0  0
    1.6178    1.7841    0.0000 H   0  0  0  0  0  0  0  0  0  0  0  0
   -1.0323   -0.7500    0.0000 C   0  0  0  0  0  0  0  0  0 15  0  0
    1.6933   -1.9635    0.0000 H   0  0  0  0  0  0  0  0  0  0  0  0
   -0.2158   -2.5838    0.0000 H   0  0  0  0  0  0  0  0  0  0  0  0
   -1.0323    3.1771    0.0000 N   0  0  0  0  0  0  0  0  0  7  0  0
    1.7441    2.7371    0.0000 H   0  0  0  0  0  0  0  0  0  0  0  0
    0.7062    4.1807    0.0000 H   0  0  0  0  0  0  0  0  0  0  0  0
   -1.9140    1.9635    0.0000 C   0  0  0  0  0  0  0  0  0 17  0  0
   -2.4589    0.2865    0.0000 H   0  0  0  0  0  0  0  0  0  0  0  0
   -1.3442   -2.2172    0.0000 H   0  0  0  0  0  0  0  0  0  0  0  0
   -2.5321   -0.7762    0.0000 H   0  0  0  0  0  0  0  0  0  0  0  0
   -1.4958    4.6036    0.0000 N   0  0  0  0  0  0  0  0  0  5  0  0
   -3.0287    2.9672    0.0000 H   0  0  0  0  0  0  0  0  0  0  0  0
   -3.1427    1.1032    0.0000 H   0  0  0  0  0  0  0  0  0  0  0  0
   -0.4921    5.7184    0.0000 C   0  0  0  0  0  0  0  0  0 18  0  0
   -2.9630    4.9155    0.0000 H   0  0  0  0  0  0  0  0  0  0  0  0
   -0.9556    7.1449    0.0000 N   0  0  0  0  0  0  0  0  0  6  0  0
    0.9751    5.4065    0.0000 O   0  0  0  0  0  0  0  0  0  2  0  0
    0.0481    8.2597    0.0000 S   0  0  0  0  0  6  0  0  0  1  0  0
   -2.4229    7.4568    0.0000 H   0  0  0  0  0  0  0  0  0  0  0  0
    1.1628    7.2560    0.0000 O   0  0  0  0  0  0  0  0  0  3  0  0
   -1.0667    9.2634    0.0000 O   0  0  0  0  0  0  0  0  0  4  0  0
    1.0518    9.3744    0.0000 C   0  0  0  0  0  0  0  0  0 20  0  0
    2.5190    9.0625    0.0000 C   0  0  0  0  0  0  0  0  0 11  0  0
    0.5882   10.8010    0.0000 C   0  0  0  0  0  0  0  0  0 12  0  0
    3.5227   10.1772    0.0000 C   0  0  0  0  0  0  0  0  0  9  0  0
    2.9825    7.6359    0.0000 H   0  0  0  0  0  0  0  0  0  0  0  0
    1.5919   11.9157    0.0000 C   0  0  0  0  0  0  0  0  0 10  0  0
   -0.8790   11.1128    0.0000 H   0  0  0  0  0  0  0  0  0  0  0  0
    3.0591   11.6038    0.0000 C   0  0  0  0  0  0  0  0  0 19  0  0
    4.9899    9.8654    0.0000 H   0  0  0  0  0  0  0  0  0  0  0  0
    1.1284   13.3423    0.0000 H   0  0  0  0  0  0  0  0  0  0  0  0
    4.0628   12.7185    0.0000 C   0  0  0  0  0  0  0  0  0  8  0  0
    5.0665   13.8332    0.0000 H   0  0  0  0  0  0  0  0  0  0  0  0
    5.1776   11.7148    0.0000 H   0  0  0  0  0  0  0  0  0  0  0  0
    2.9481   13.7222    0.0000 H   0  0  0  0  0  0  0  0  0  0  0  0
  1  2  1  0
  2  3  1  0
  4  1  1  0
  1  5  1  0
  1  6  1  0
  7  4  1  0
  8  4  1  0
  4  9  1  6
  5 10  1  0
  5 11  1  0
  5 12  1  0
 13  7  1  0
  7 14  1  0
  7 15  1  0
 10  8  1  0
  8 16  1  0
  8 17  1  6
 10 18  1  0
 10 19  1  0
 20 13  1  0
 16 13  1  0
 16 21  1  0
 16 22  1  0
 23 20  1  0
 20 24  1  0
 25 23  1  0
 23 26  2  0
 27 25  1  0
 25 28  1  0
 27 29  2  0
 27 30  2  0
 27 31  1  0
 31 32  2  0
 33 31  1  0
 32 34  1  0
 32 35  1  0
 36 33  2  0
 33 37  1  0
 34 38  2  0
 34 39  1  0
 38 36  1  0
 36 40  1  0
 38 41  1  0
 41 42  1  0
 41 43  1  0
 41 44  1  0
M  END
>  <SMILES>  (3) 
Cc1ccc(S(=O)(=O)NC(=O)NN2CC3CCC(O)C3C2)cc1

>  <Molecular Weight>  (3) 
339.4

>  <Substrate_ID>  (3) 
MOL0003

>  <Substrate>  (3) 


>  <Substrate_SMILES>  (3) 
Cc1ccc(S(=O)(=O)NC(=O)NN2CC3CCCC3C2)cc1

>  <Reaction>  (3) 
aliphatic hydroxylation

>  <Score>  (3) 
0.2444

>  <Reaction_Score>  (3) 
0.2418

>  <Bond_Score>  (3) 
0.247

>  <Rank>  (3) 
3

>  <Subtype>  (3) 
3A4

>  <Subtype_Scores>  (3) 
[3A4] SOM_score: 0.2470, Reaction_score: 0.2418, Score: 0.2444


$$$$
