
     RDKit          2D

 28 30  0  0  0  0  0  0  0  0999 V2000
    1.7849    5.4933    0.0000 N   0  0  0  0  0  0  0  0  0  5  0  0
    2.7886    4.3786    0.0000 C   0  0  0  0  0  0  0  0  0 20  0  0
    0.3177    5.1814    0.0000 C   0  0  0  0  0  0  0  0  0 23  0  0
    2.3250    2.9520    0.0000 C   0  0  0  0  0  0  0  0  0 21  0  0
    3.7121    5.5606    0.0000 H   0  0  0  0  0  0  0  0  0  0  0  0
    4.1130    3.6744    0.0000 H   0  0  0  0  0  0  0  0  0  0  0  0
   -0.1459    3.7548    0.0000 C   0  0  0  0  0  0  0  0  0 22  0  0
   -1.1677    5.3902    0.0000 H   0  0  0  0  0  0  0  0  0  0  0  0
    0.2653    6.6805    0.0000 H   0  0  0  0  0  0  0  0  0  0  0  0
    0.8578    2.6401    0.0000 N   0  0  0  0  0  0  0  0  0  6  0  0
    3.8104    2.7432    0.0000 H   0  0  0  0  0  0  0  0  0  0  0  0
    2.3774    1.4529    0.0000 H   0  0  0  0  0  0  0  0  0  0  0  0
   -1.0694    2.5728    0.0000 H   0  0  0  0  0  0  0  0  0  0  0  0
   -1.4703    4.4590    0.0000 H   0  0  0  0  0  0  0  0  0  0  0  0
    0.3943    1.2135    0.0000 C   0  0  0  0  0  0  0  0  0 24  0  0
    1.2760    0.0000    0.0000 N   0  0  0  0  0  0  0  0  0  7  0  0
   -1.0323    0.7500    0.0000 C   0  0  0  0  0  0  0  0  0 30  0  0
    0.3943   -1.2135    0.0000 S   0  0  0  0  0  0  0  0  0  1  0  0
   -1.0323   -0.7500    0.0000 C   0  0  0  0  0  0  0  0  0 25  0  0
   -2.3313    1.5000    0.0000 C   0  0  0  0  0  0  0  0  0 29  0  0
   -2.3313   -1.5000    0.0000 C   0  0  0  0  0  0  0  0  0 26  0  0
   -3.6304    0.7500    0.0000 C   0  0  0  0  0  0  0  0  0 28  0  0
   -2.3313    3.0000    0.0000 H   0  0  0  0  0  0  0  0  0  0  0  0
   -3.6304   -0.7500    0.0000 C   0  0  0  0  0  0  0  0  0 27  0  0
   -2.3313   -3.0000    0.0000 H   0  0  0  0  0  0  0  0  0  0  0  0
   -4.9294    1.5000    0.0000 H   0  0  0  0  0  0  0  0  0  0  0  0
   -4.9294   -1.5000    0.0000 H   0  0  0  0  0  0  0  0  0  0  0  0
    2.2484    6.9199    0.0000 H   0  0  0  0  0  0  0  0  0  0  0  0
  2  1  1  0
  1  3  1  0
  4  2  1  0
  2  5  1  0
  2  6  1  0
  3  7  1  0
  3  8  1  0
  3  9  1  0
 10  4  1  0
  4 11  1  0
  4 12  1  0
  7 10  1  0
  7 13  1  0
  7 14  1  0
 15 10  1  0
 16 15  2  0
 15 17  1  0
 18 16  1  0
 17 19  2  0
 20 17  1  0
 19 18  1  0
 19 21  1  0
 22 20  2  0
 20 23  1  0
 21 24  2  0
 21 25  1  0
 24 22  1  0
 22 26  1  0
 24 27  1  0
  1 28  1  0
M  END
>  <SMILES>  (1) 
c1ccc2c(N3CCNCC3)nsc2c1

>  <Molecular Weight>  (1) 
219.3

>  <Substrate_ID>  (1) 
MOL0088

>  <Substrate>  (1) 


>  <Substrate_SMILES>  (1) 
O=C1C2CCCCC2C(=O)N1CCCCN1CCN(c2nsc3ccccc23)CC1

>  <Reaction>  (1) 
N-dealkylation_(tertiaryN-CH2-alkyl)

>  <Score>  (1) 
0.5219

>  <Reaction_Score>  (1) 
0.4723

>  <Bond_Score>  (1) 
0.5768

>  <Rank>  (1) 
1

>  <Subtype>  (1) 
2C8, 3A4

>  <Subtype_Scores>  (1) 
[2C8] SOM_score: 0.1829, Reaction_score: 0.4723, Score: 0.2939
[3A4] SOM_score: 0.5768, Reaction_score: 0.4723, Score: 0.5219


$$$$

     RDKit          2D

 35 36  0  0  0  0  0  0  0  0999 V2000
    8.7760    0.0000    0.0000 O   0  0  0  0  0  0  0  0  0 31  0  0
    7.2760    0.0000    0.0000 C   0  0  0  0  0  0  0  0  0 19  0  0
    5.7760    0.0000    0.0000 C   0  0  0  0  0  0  0  0  0 18  0  0
    7.2760    1.5000    0.0000 H   0  0  0  0  0  0  0  0  0  0  0  0
    7.2760   -1.5000    0.0000 H   0  0  0  0  0  0  0  0  0  0  0  0
    4.2760    0.0000    0.0000 C   0  0  0  0  0  0  0  0  0 17  0  0
    5.7760    1.5000    0.0000 H   0  0  0  0  0  0  0  0  0  0  0  0
    5.7760   -1.5000    0.0000 H   0  0  0  0  0  0  0  0  0  0  0  0
    2.7760    0.0000    0.0000 C   0  0  0  0  0  0  0  0  0 16  0  0
    4.2760   -1.5000    0.0000 H   0  0  0  0  0  0  0  0  0  0  0  0
    4.2760    1.5000    0.0000 H   0  0  0  0  0  0  0  0  0  0  0  0
    1.2760    0.0000    0.0000 N   0  0  0  0  0  0  0  0  0  4  0  0
    2.7760    1.5000    0.0000 H   0  0  0  0  0  0  0  0  0  0  0  0
    2.7760   -1.5000    0.0000 H   0  0  0  0  0  0  0  0  0  0  0  0
    0.3943    1.2135    0.0000 C   0  0  0  0  0  0  0  0  0 14  0  0
    0.3943   -1.2135    0.0000 C   0  0  0  0  0  0  0  0  0 15  0  0
    0.8578    2.6401    0.0000 O   0  0  0  0  0  0  0  0  0  2  0  0
   -1.0323    0.7500    0.0000 C   0  0  0  0  0  0  0  0  0 12  0  0
   -1.0323   -0.7500    0.0000 C   0  0  0  0  0  0  0  0  0 11  0  0
    0.8578   -2.6401    0.0000 O   0  0  0  0  0  0  0  0  0  3  0  0
   -2.3313    1.5000    0.0000 C   0  0  0  0  0  0  0  0  0 13  0  0
   -0.6948    2.2115    0.0000 H   0  0  0  0  0  0  0  0  0  0  0  0
   -2.3313   -1.5000    0.0000 C   0  0  0  0  0  0  0  0  0 10  0  0
   -0.6948   -2.2115    0.0000 H   0  0  0  0  0  0  0  0  0  0  0  0
   -3.6304    0.7500    0.0000 C   0  0  0  0  0  0  0  0  0  8  0  0
   -3.2955    2.6491    0.0000 H   0  0  0  0  0  0  0  0  0  0  0  0
   -1.5144    2.7580    0.0000 H   0  0  0  0  0  0  0  0  0  0  0  0
   -3.6304   -0.7500    0.0000 C   0  0  0  0  0  0  0  0  0  9  0  0
   -1.5144   -2.7580    0.0000 H   0  0  0  0  0  0  0  0  0  0  0  0
   -3.2955   -2.6491    0.0000 H   0  0  0  0  0  0  0  0  0  0  0  0
   -5.1076    0.4895    0.0000 H   0  0  0  0  0  0  0  0  0  0  0  0
   -4.1434    2.1595    0.0000 H   0  0  0  0  0  0  0  0  0  0  0  0
   -4.1434   -2.1595    0.0000 H   0  0  0  0  0  0  0  0  0  0  0  0
   -5.1076   -0.4895    0.0000 H   0  0  0  0  0  0  0  0  0  0  0  0
    9.5260   -1.2990    0.0000 H   0  0  0  0  0  0  0  0  0  0  0  0
  1  2  1  0
  2  3  1  0
  2  4  1  0
  2  5  1  0
  3  6  1  0
  3  7  1  0
  3  8  1  0
  6  9  1  0
  6 10  1  0
  6 11  1  0
  9 12  1  0
  9 13  1  0
  9 14  1  0
 12 15  1  0
 16 12  1  0
 15 17  2  0
 15 18  1  0
 19 16  1  0
 16 20  2  0
 18 19  1  0
 21 18  1  0
 18 22  1  6
 19 23  1  0
 19 24  1  6
 25 21  1  0
 21 26  1  0
 21 27  1  0
 23 28  1  0
 23 29  1  0
 23 30  1  0
 28 25  1  0
 25 31  1  0
 25 32  1  0
 28 33  1  0
 28 34  1  0
  1 35  1  0
M  END
>  <SMILES>  (2) 
O=C1C2CCCCC2C(=O)N1CCCCO

>  <Molecular Weight>  (2) 
225.3

>  <Substrate_ID>  (2) 
MOL0088

>  <Substrate>  (2) 


>  <Substrate_SMILES>  (2) 
O=C1C2CCCCC2C(=O)N1CCCCN1CCN(c2nsc3ccccc23)CC1

>  <Reaction>  (2) 
N-dealkylation_(tertiaryN-CH2-alkyl)

>  <Score>  (2) 
0.5219

>  <Reaction_Score>  (2) 
0.4723

>  <Bond_Score>  (2) 
0.5768

>  <Rank>  (2) 
1

>  <Subtype>  (2) 
2C8, 3A4

>  <Subtype_Scores>  (2) 
[2C8] SOM_score: 0.1829, Reaction_score: 0.4723, Score: 0.2939
[3A4] SOM_score: 0.5768, Reaction_score: 0.4723, Score: 0.5219


$$$$

     RDKit          2D

 33 34  0  0  0  0  0  0  0  0999 V2000
    7.2760    0.0000    0.0000 C   0  0  0  0  0  0  0  0  0 19  0  0
    8.0260    1.2990    0.0000 O   0  0  0  0  0  0  0  0  0 31  0  0
    5.7760    0.0000    0.0000 C   0  0  0  0  0  0  0  0  0 18  0  0
    8.0260   -1.2990    0.0000 H   0  0  0  0  0  0  0  0  0  0  0  0
    4.2760    0.0000    0.0000 C   0  0  0  0  0  0  0  0  0 17  0  0
    5.7760    1.5000    0.0000 H   0  0  0  0  0  0  0  0  0  0  0  0
    5.7760   -1.5000    0.0000 H   0  0  0  0  0  0  0  0  0  0  0  0
    2.7760    0.0000    0.0000 C   0  0  0  0  0  0  0  0  0 16  0  0
    4.2760   -1.5000    0.0000 H   0  0  0  0  0  0  0  0  0  0  0  0
    4.2760    1.5000    0.0000 H   0  0  0  0  0  0  0  0  0  0  0  0
    1.2760    0.0000    0.0000 N   0  0  0  0  0  0  0  0  0  4  0  0
    2.7760    1.5000    0.0000 H   0  0  0  0  0  0  0  0  0  0  0  0
    2.7760   -1.5000    0.0000 H   0  0  0  0  0  0  0  0  0  0  0  0
    0.3943    1.2135    0.0000 C   0  0  0  0  0  0  0  0  0 14  0  0
    0.3943   -1.2135    0.0000 C   0  0  0  0  0  0  0  0  0 15  0  0
    0.8578    2.6401    0.0000 O   0  0  0  0  0  0  0  0  0  2  0  0
   -1.0323    0.7500    0.0000 C   0  0  0  0  0  0  0  0  0 12  0  0
   -1.0323   -0.7500    0.0000 C   0  0  0  0  0  0  0  0  0 11  0  0
    0.8578   -2.6401    0.0000 O   0  0  0  0  0  0  0  0  0  3  0  0
   -2.3313    1.5000    0.0000 C   0  0  0  0  0  0  0  0  0 13  0  0
   -0.6948    2.2115    0.0000 H   0  0  0  0  0  0  0  0  0  0  0  0
   -2.3313   -1.5000    0.0000 C   0  0  0  0  0  0  0  0  0 10  0  0
   -0.6948   -2.2115    0.0000 H   0  0  0  0  0  0  0  0  0  0  0  0
   -3.6304    0.7500    0.0000 C   0  0  0  0  0  0  0  0  0  8  0  0
   -3.2955    2.6491    0.0000 H   0  0  0  0  0  0  0  0  0  0  0  0
   -1.5144    2.7580    0.0000 H   0  0  0  0  0  0  0  0  0  0  0  0
   -3.6304   -0.7500    0.0000 C   0  0  0  0  0  0  0  0  0  9  0  0
   -1.5144   -2.7580    0.0000 H   0  0  0  0  0  0  0  0  0  0  0  0
   -3.2955   -2.6491    0.0000 H   0  0  0  0  0  0  0  0  0  0  0  0
   -5.1076    0.4895    0.0000 H   0  0  0  0  0  0  0  0  0  0  0  0
   -4.1434    2.1595    0.0000 H   0  0  0  0  0  0  0  0  0  0  0  0
   -4.1434   -2.1595    0.0000 H   0  0  0  0  0  0  0  0  0  0  0  0
   -5.1076   -0.4895    0.0000 H   0  0  0  0  0  0  0  0  0  0  0  0
  1  2  2  0
  1  3  1  0
  1  4  1  0
  3  5  1  0
  3  6  1  0
  3  7  1  0
  5  8  1  0
  5  9  1  0
  5 10  1  0
  8 11  1  0
  8 12  1  0
  8 13  1  0
 11 14  1  0
 15 11  1  0
 14 16  2  0
 14 17  1  0
 18 15  1  0
 15 19  2  0
 17 18  1  0
 20 17  1  0
 17 21  1  6
 18 22  1  0
 18 23  1  6
 24 20  1  0
 20 25  1  0
 20 26  1  0
 22 27  1  0
 22 28  1  0
 22 29  1  0
 27 24  1  0
 24 30  1  0
 24 31  1  0
 27 32  1  0
 27 33  1  0
M  END
>  <SMILES>  (3) 
O=CCCCN1C(=O)C2CCCCC2C1=O

>  <Molecular Weight>  (3) 
223.3

>  <Substrate_ID>  (3) 
MOL0088

>  <Substrate>  (3) 


>  <Substrate_SMILES>  (3) 
O=C1C2CCCCC2C(=O)N1CCCCN1CCN(c2nsc3ccccc23)CC1

>  <Reaction>  (3) 
N-dealkylation_(hetero_ring)

>  <Score>  (3) 
0.5219

>  <Reaction_Score>  (3) 
0.4723

>  <Bond_Score>  (3) 
0.5768

>  <Rank>  (3) 
1

>  <Subtype>  (3) 
2C8, 3A4

>  <Subtype_Scores>  (3) 
[2C8] SOM_score: 0.1829, Reaction_score: 0.4723, Score: 0.2939
[3A4] SOM_score: 0.5768, Reaction_score: 0.4723, Score: 0.5219


$$$$

     RDKit          2D

 61 65  0  0  0  0  0  0  0  0999 V2000
    0.7062    2.6807    0.0000 C   0  0  0  0  0  0  0  0  0 10  0  0
   -0.4086    3.6844    0.0000 C   0  0  0  0  0  0  0  0  0  9  0  0
    0.7735    4.6079    0.0000 O   0  0  0  0  0  0  0  0  0 31  0  0
   -1.8351    3.2209    0.0000 C   0  0  0  0  0  0  0  0  0  8  0  0
    0.3943    1.2135    0.0000 C   0  0  0  0  0  0  0  0  0 11  0  0
    2.1551    2.2926    0.0000 H   0  0  0  0  0  0  0  0  0  0  0  0
    1.5010    3.9528    0.0000 H   0  0  0  0  0  0  0  0  0  0  0  0
   -1.0323    0.7500    0.0000 C   0  0  0  0  0  0  0  0  0 12  0  0
    1.2760    0.0000    0.0000 C   0  0  0  0  0  0  0  0  0 15  0  0
    1.8886    1.3442    0.0000 H   0  0  0  0  0  0  0  0  0  0  0  0
   -1.0323   -0.7500    0.0000 C   0  0  0  0  0  0  0  0  0 14  0  0
   -2.1470    1.7537    0.0000 C   0  0  0  0  0  0  0  0  0 13  0  0
   -2.3180   -0.0226    0.0000 H   0  0  0  0  0  0  0  0  0  0  0  0
    2.7760    0.0000    0.0000 O   0  0  0  0  0  0  0  0  0  3  0  0
    0.3943   -1.2135    0.0000 N   0  0  0  0  0  0  0  0  0  4  0  0
   -2.2458   -1.6317    0.0000 O   0  0  0  0  0  0  0  0  0  2  0  0
   -3.5378    2.3156    0.0000 H   0  0  0  0  0  0  0  0  0  0  0  0
   -3.0910    0.5880    0.0000 H   0  0  0  0  0  0  0  0  0  0  0  0
    0.8578   -2.6401    0.0000 C   0  0  0  0  0  0  0  0  0 16  0  0
    1.3213   -4.0667    0.0000 C   0  0  0  0  0  0  0  0  0 17  0  0
    2.2844   -2.1766    0.0000 H   0  0  0  0  0  0  0  0  0  0  0  0
   -0.5688   -3.1036    0.0000 H   0  0  0  0  0  0  0  0  0  0  0  0
    1.7849   -5.4933    0.0000 C   0  0  0  0  0  0  0  0  0 18  0  0
    2.7479   -3.6032    0.0000 H   0  0  0  0  0  0  0  0  0  0  0  0
   -0.1052   -4.5302    0.0000 H   0  0  0  0  0  0  0  0  0  0  0  0
    2.2484   -6.9199    0.0000 C   0  0  0  0  0  0  0  0  0 19  0  0
    0.3583   -5.9568    0.0000 H   0  0  0  0  0  0  0  0  0  0  0  0
    3.2115   -5.0298    0.0000 H   0  0  0  0  0  0  0  0  0  0  0  0
    2.7119   -8.3464    0.0000 N   0  0  0  0  0  0  0  0  0  5  0  0
    3.6078   -6.2859    0.0000 H   0  0  0  0  0  0  0  0  0  0  0  0
    0.7760   -7.2060    0.0000 H   0  0  0  0  0  0  0  0  0  0  0  0
    1.7082   -9.4612    0.0000 C   0  0  0  0  0  0  0  0  0 20  0  0
    4.1791   -8.6583    0.0000 C   0  0  0  0  0  0  0  0  0 23  0  0
    2.1718  -10.8878    0.0000 C   0  0  0  0  0  0  0  0  0 21  0  0
    0.3838  -10.1654    0.0000 H   0  0  0  0  0  0  0  0  0  0  0  0
    0.6475   -8.4005    0.0000 H   0  0  0  0  0  0  0  0  0  0  0  0
    4.6427  -10.0849    0.0000 C   0  0  0  0  0  0  0  0  0 22  0  0
    4.4138   -7.1768    0.0000 H   0  0  0  0  0  0  0  0  0  0  0  0
    5.6645   -8.4496    0.0000 H   0  0  0  0  0  0  0  0  0  0  0  0
    3.6390  -11.1996    0.0000 N   0  0  0  0  0  0  0  0  0  6  0  0
    2.1194  -12.3868    0.0000 H   0  0  0  0  0  0  0  0  0  0  0  0
    0.6864  -11.0965    0.0000 H   0  0  0  0  0  0  0  0  0  0  0  0
    5.9671   -9.3807    0.0000 H   0  0  0  0  0  0  0  0  0  0  0  0
    5.5662  -11.2669    0.0000 H   0  0  0  0  0  0  0  0  0  0  0  0
    4.1025  -12.6262    0.0000 C   0  0  0  0  0  0  0  0  0 24  0  0
    5.5291  -13.0897    0.0000 N   0  0  0  0  0  0  0  0  0  7  0  0
    3.2208  -13.8397    0.0000 C   0  0  0  0  0  0  0  0  0 30  0  0
    5.5291  -14.5897    0.0000 S   0  0  0  0  0  0  0  0  0  1  0  0
    4.1025  -15.0533    0.0000 C   0  0  0  0  0  0  0  0  0 25  0  0
    1.7290  -13.9965    0.0000 C   0  0  0  0  0  0  0  0  0 29  0  0
    3.4924  -16.4236    0.0000 C   0  0  0  0  0  0  0  0  0 26  0  0
    1.1189  -15.3668    0.0000 C   0  0  0  0  0  0  0  0  0 28  0  0
    0.8474  -12.7830    0.0000 H   0  0  0  0  0  0  0  0  0  0  0  0
    2.0006  -16.5804    0.0000 C   0  0  0  0  0  0  0  0  0 27  0  0
    4.3741  -17.6371    0.0000 H   0  0  0  0  0  0  0  0  0  0  0  0
   -0.3728  -15.5236    0.0000 H   0  0  0  0  0  0  0  0  0  0  0  0
    1.3905  -17.9507    0.0000 H   0  0  0  0  0  0  0  0  0  0  0  0
   -1.1128    5.0089    0.0000 H   0  0  0  0  0  0  0  0  0  0  0  0
   -2.0439    4.7063    0.0000 H   0  0  0  0  0  0  0  0  0  0  0  0
   -3.3342    3.2733    0.0000 H   0  0  0  0  0  0  0  0  0  0  0  0
    0.5647    6.0933    0.0000 H   0  0  0  0  0  0  0  0  0  0  0  0
  1  2  1  0
  2  3  1  0
  2  4  1  0
  5  1  1  0
  1  6  1  0
  1  7  1  0
  8  5  1  0
  5  9  1  0
  5 10  1  1
 11  8  1  0
 12  8  1  0
  8 13  1  1
  9 14  2  0
  9 15  1  0
 15 11  1  0
 11 16  2  0
  4 12  1  0
 12 17  1  0
 12 18  1  0
 19 15  1  0
 20 19  1  0
 19 21  1  0
 19 22  1  0
 23 20  1  0
 20 24  1  0
 20 25  1  0
 26 23  1  0
 23 27  1  0
 23 28  1  0
 29 26  1  0
 26 30  1  0
 26 31  1  0
 32 29  1  0
 29 33  1  0
 34 32  1  0
 32 35  1  0
 32 36  1  0
 33 37  1  0
 33 38  1  0
 33 39  1  0
 40 34  1  0
 34 41  1  0
 34 42  1  0
 37 40  1  0
 37 43  1  0
 37 44  1  0
 45 40  1  0
 46 45  2  0
 45 47  1  0
 48 46  1  0
 47 49  2  0
 50 47  1  0
 49 48  1  0
 49 51  1  0
 52 50  2  0
 50 53  1  0
 51 54  2  0
 51 55  1  0
 54 52  1  0
 52 56  1  0
 54 57  1  0
  2 58  1  0
  4 59  1  0
  4 60  1  0
  3 61  1  0
M  END
>  <SMILES>  (4) 
O=C1C2CCC(O)CC2C(=O)N1CCCCN1CCN(c2nsc3ccccc23)CC1

>  <Molecular Weight>  (4) 
442.6

>  <Substrate_ID>  (4) 
MOL0088

>  <Substrate>  (4) 


>  <Substrate_SMILES>  (4) 
O=C1C2CCCCC2C(=O)N1CCCCN1CCN(c2nsc3ccccc23)CC1

>  <Reaction>  (4) 
aliphatic_hydroxylation_(sec_carbon_in_a_ringA),aliphatic hydroxylation

>  <Score>  (4) 
0.3824

>  <Reaction_Score>  (4) 
0.3832

>  <Bond_Score>  (4) 
0.3817

>  <Rank>  (4) 
2

>  <Subtype>  (4) 
2C8, 3A4

>  <Subtype_Scores>  (4) 
[2C8] SOM_score: 0.1516, Reaction_score: 0.3832, Score: 0.2410
[3A4] SOM_score: 0.3817, Reaction_score: 0.3832, Score: 0.3824


$$$$

     RDKit          2D

 61 65  0  0  0  0  0  0  0  0999 V2000
    0.3943    1.2135    0.0000 C   0  0  0  0  0  0  0  0  0 24  0  0
    1.2760   -0.0000    0.0000 C   0  0  0  0  0  0  0  0  0 30  0  0
    0.3943   -1.2135    0.0000 C   0  0  0  0  0  0  0  0  0 25  0  0
    1.0044   -2.5838    0.0000 C   0  0  0  0  0  0  0  0  0 26  0  0
    2.4962   -2.7406    0.0000 C   0  0  0  0  0  0  0  0  0 27  0  0
    3.1063   -4.1110    0.0000 O   0  0  0  0  0  0  0  0  0 31  0  0
    3.3779   -1.5271    0.0000 C   0  0  0  0  0  0  0  0  0 28  0  0
    2.7678   -0.1568    0.0000 C   0  0  0  0  0  0  0  0  0 29  0  0
   -1.0323    0.7500    0.0000 N   0  0  0  0  0  0  0  0  0  7  0  0
    0.8578    2.6401    0.0000 N   0  0  0  0  0  0  0  0  0  6  0  0
   -1.0323   -0.7500    0.0000 S   0  0  0  0  0  0  0  0  0  1  0  0
   -0.1459    3.7548    0.0000 C   0  0  0  0  0  0  0  0  0 21  0  0
    2.3250    2.9520    0.0000 C   0  0  0  0  0  0  0  0  0 22  0  0
    0.3177    5.1814    0.0000 C   0  0  0  0  0  0  0  0  0 20  0  0
   -1.4703    4.4590    0.0000 H   0  0  0  0  0  0  0  0  0  0  0  0
   -1.0694    2.5728    0.0000 H   0  0  0  0  0  0  0  0  0  0  0  0
    2.7886    4.3786    0.0000 C   0  0  0  0  0  0  0  0  0 23  0  0
    2.3774    1.4529    0.0000 H   0  0  0  0  0  0  0  0  0  0  0  0
    3.8104    2.7432    0.0000 H   0  0  0  0  0  0  0  0  0  0  0  0
    1.7849    5.4933    0.0000 N   0  0  0  0  0  0  0  0  0  5  0  0
    0.0830    6.6629    0.0000 H   0  0  0  0  0  0  0  0  0  0  0  0
   -1.1677    5.3902    0.0000 H   0  0  0  0  0  0  0  0  0  0  0  0
    4.1130    3.6744    0.0000 H   0  0  0  0  0  0  0  0  0  0  0  0
    3.8493    5.4392    0.0000 H   0  0  0  0  0  0  0  0  0  0  0  0
    2.2484    6.9199    0.0000 C   0  0  0  0  0  0  0  0  0 19  0  0
    2.7119    8.3464    0.0000 C   0  0  0  0  0  0  0  0  0 18  0  0
    0.8890    7.5538    0.0000 H   0  0  0  0  0  0  0  0  0  0  0  0
    3.7208    6.6337    0.0000 H   0  0  0  0  0  0  0  0  0  0  0  0
    3.1755    9.7730    0.0000 C   0  0  0  0  0  0  0  0  0 17  0  0
    1.2853    8.8100    0.0000 H   0  0  0  0  0  0  0  0  0  0  0  0
    4.1385    7.8829    0.0000 H   0  0  0  0  0  0  0  0  0  0  0  0
    3.6390   11.1996    0.0000 C   0  0  0  0  0  0  0  0  0 16  0  0
    4.6020    9.3095    0.0000 H   0  0  0  0  0  0  0  0  0  0  0  0
    1.7489   10.2366    0.0000 H   0  0  0  0  0  0  0  0  0  0  0  0
    4.1025   12.6262    0.0000 N   0  0  0  0  0  0  0  0  0  4  0  0
    2.2124   11.6631    0.0000 H   0  0  0  0  0  0  0  0  0  0  0  0
    5.0656   10.7361    0.0000 H   0  0  0  0  0  0  0  0  0  0  0  0
    3.2208   13.8397    0.0000 C   0  0  0  0  0  0  0  0  0 14  0  0
    5.5291   13.0897    0.0000 C   0  0  0  0  0  0  0  0  0 15  0  0
    1.7208   13.8397    0.0000 O   0  0  0  0  0  0  0  0  0  2  0  0
    4.1025   15.0533    0.0000 C   0  0  0  0  0  0  0  0  0 12  0  0
    5.5291   14.5897    0.0000 C   0  0  0  0  0  0  0  0  0 11  0  0
    6.7426   12.2081    0.0000 O   0  0  0  0  0  0  0  0  0  3  0  0
    3.7906   16.5205    0.0000 C   0  0  0  0  0  0  0  0  0 13  0  0
    2.6082   15.1839    0.0000 H   0  0  0  0  0  0  0  0  0  0  0  0
    6.6438   15.5934    0.0000 C   0  0  0  0  0  0  0  0  0 10  0  0
    6.8148   13.8171    0.0000 H   0  0  0  0  0  0  0  0  0  0  0  0
    4.9054   17.5242    0.0000 C   0  0  0  0  0  0  0  0  0  8  0  0
    2.9958   17.7925    0.0000 H   0  0  0  0  0  0  0  0  0  0  0  0
    2.3417   16.1323    0.0000 H   0  0  0  0  0  0  0  0  0  0  0  0
    6.3319   17.0606    0.0000 C   0  0  0  0  0  0  0  0  0  9  0  0
    7.5878   14.4277    0.0000 H   0  0  0  0  0  0  0  0  0  0  0  0
    8.0346   16.1553    0.0000 H   0  0  0  0  0  0  0  0  0  0  0  0
    5.6096   18.8486    0.0000 H   0  0  0  0  0  0  0  0  0  0  0  0
    3.7233   18.4477    0.0000 H   0  0  0  0  0  0  0  0  0  0  0  0
    7.8310   17.1130    0.0000 H   0  0  0  0  0  0  0  0  0  0  0  0
    6.5407   18.5460    0.0000 H   0  0  0  0  0  0  0  0  0  0  0  0
    0.1227   -3.7974    0.0000 H   0  0  0  0  0  0  0  0  0  0  0  0
    4.8696   -1.6839    0.0000 H   0  0  0  0  0  0  0  0  0  0  0  0
    3.6494    1.0567    0.0000 H   0  0  0  0  0  0  0  0  0  0  0  0
    4.5981   -4.2677    0.0000 H   0  0  0  0  0  0  0  0  0  0  0  0
  1  2  1  0
  2  3  1  0
  3  4  2  0
  4  5  1  0
  5  6  1  0
  5  7  2  0
  7  8  1  0
  8  2  2  0
  9  1  2  0
  1 10  1  0
 11  9  1  0
 10 12  1  0
 13 10  1  0
  3 11  1  0
 12 14  1  0
 12 15  1  0
 12 16  1  0
 17 13  1  0
 13 18  1  0
 13 19  1  0
 14 20  1  0
 14 21  1  0
 14 22  1  0
 20 17  1  0
 17 23  1  0
 17 24  1  0
 20 25  1  0
 25 26  1  0
 25 27  1  0
 25 28  1  0
 26 29  1  0
 26 30  1  0
 26 31  1  0
 29 32  1  0
 29 33  1  0
 29 34  1  0
 32 35  1  0
 32 36  1  0
 32 37  1  0
 35 38  1  0
 39 35  1  0
 38 40  2  0
 38 41  1  0
 42 39  1  0
 39 43  2  0
 41 42  1  0
 44 41  1  0
 41 45  1  1
 42 46  1  0
 42 47  1  1
 48 44  1  0
 44 49  1  0
 44 50  1  0
 46 51  1  0
 46 52  1  0
 46 53  1  0
 51 48  1  0
 48 54  1  0
 48 55  1  0
 51 56  1  0
 51 57  1  0
  4 58  1  0
  7 59  1  0
  8 60  1  0
  6 61  1  0
M  END
>  <SMILES>  (5) 
O=C1C2CCCCC2C(=O)N1CCCCN1CCN(c2nsc3cc(O)ccc23)CC1

>  <Molecular Weight>  (5) 
442.6

>  <Substrate_ID>  (5) 
MOL0088

>  <Substrate>  (5) 


>  <Substrate_SMILES>  (5) 
O=C1C2CCCCC2C(=O)N1CCCCN1CCN(c2nsc3ccccc23)CC1

>  <Reaction>  (5) 
aromatic_hydroxylation_(para_to_carbon),aromatic hydroxylation

>  <Score>  (5) 
0.2815

>  <Reaction_Score>  (5) 
0.2967

>  <Bond_Score>  (5) 
0.2671

>  <Rank>  (5) 
3

>  <Subtype>  (5) 
2C8, 3A4

>  <Subtype_Scores>  (5) 
[2C8] SOM_score: 0.1562, Reaction_score: 0.2967, Score: 0.2153
[3A4] SOM_score: 0.2671, Reaction_score: 0.2967, Score: 0.2815


$$$$

     RDKit          2D

 61 65  0  0  0  0  0  0  0  0999 V2000
   -1.8351    3.2209    0.0000 C   0  0  0  0  0  0  0  0  0 28  0  0
   -2.9499    4.2246    0.0000 O   0  0  0  0  0  0  0  0  0 31  0  0
   -2.6380    5.6918    0.0000 H   0  0  0  0  0  0  0  0  0  0  0  0
   -0.4086    3.6844    0.0000 C   0  0  0  0  0  0  0  0  0 27  0  0
   -2.1470    1.7537    0.0000 C   0  0  0  0  0  0  0  0  0 29  0  0
    0.7062    2.6807    0.0000 C   0  0  0  0  0  0  0  0  0 26  0  0
   -0.0967    5.1517    0.0000 H   0  0  0  0  0  0  0  0  0  0  0  0
   -1.0323    0.7500    0.0000 C   0  0  0  0  0  0  0  0  0 30  0  0
   -3.5736    1.2902    0.0000 H   0  0  0  0  0  0  0  0  0  0  0  0
    0.3943    1.2135    0.0000 C   0  0  0  0  0  0  0  0  0 25  0  0
    2.1328    3.1443    0.0000 H   0  0  0  0  0  0  0  0  0  0  0  0
   -1.0323   -0.7500    0.0000 C   0  0  0  0  0  0  0  0  0 24  0  0
    1.2760    0.0000    0.0000 S   0  0  0  0  0  0  0  0  0  1  0  0
    0.3943   -1.2135    0.0000 N   0  0  0  0  0  0  0  0  0  7  0  0
   -2.2458   -1.6317    0.0000 N   0  0  0  0  0  0  0  0  0  6  0  0
   -3.6161   -1.0216    0.0000 C   0  0  0  0  0  0  0  0  0 21  0  0
   -2.0890   -3.1235    0.0000 C   0  0  0  0  0  0  0  0  0 22  0  0
   -4.8297   -1.9033    0.0000 C   0  0  0  0  0  0  0  0  0 20  0  0
   -4.6951    0.0204    0.0000 H   0  0  0  0  0  0  0  0  0  0  0  0
   -2.7773    0.2220    0.0000 H   0  0  0  0  0  0  0  0  0  0  0  0
   -3.3025   -4.0051    0.0000 C   0  0  0  0  0  0  0  0  0 23  0  0
   -0.6471   -2.7100    0.0000 H   0  0  0  0  0  0  0  0  0  0  0  0
   -1.4315   -4.4717    0.0000 H   0  0  0  0  0  0  0  0  0  0  0  0
   -4.6729   -3.3950    0.0000 N   0  0  0  0  0  0  0  0  0  5  0  0
   -6.3112   -2.1379    0.0000 H   0  0  0  0  0  0  0  0  0  0  0  0
   -5.4872   -0.5551    0.0000 H   0  0  0  0  0  0  0  0  0  0  0  0
   -2.2235   -5.0471    0.0000 H   0  0  0  0  0  0  0  0  0  0  0  0
   -3.9835   -5.3417    0.0000 H   0  0  0  0  0  0  0  0  0  0  0  0
   -5.8864   -4.2767    0.0000 C   0  0  0  0  0  0  0  0  0 19  0  0
   -7.0999   -5.1584    0.0000 C   0  0  0  0  0  0  0  0  0 18  0  0
   -5.1592   -5.5887    0.0000 H   0  0  0  0  0  0  0  0  0  0  0  0
   -6.9094   -3.1797    0.0000 H   0  0  0  0  0  0  0  0  0  0  0  0
   -8.3134   -6.0401    0.0000 C   0  0  0  0  0  0  0  0  0 17  0  0
   -6.2182   -6.3719    0.0000 H   0  0  0  0  0  0  0  0  0  0  0  0
   -7.9816   -3.9449    0.0000 H   0  0  0  0  0  0  0  0  0  0  0  0
   -9.5270   -6.9217    0.0000 C   0  0  0  0  0  0  0  0  0 16  0  0
   -9.1951   -4.8265    0.0000 H   0  0  0  0  0  0  0  0  0  0  0  0
   -7.4318   -7.2536    0.0000 H   0  0  0  0  0  0  0  0  0  0  0  0
  -10.7405   -7.8034    0.0000 N   0  0  0  0  0  0  0  0  0  4  0  0
   -8.6453   -8.1353    0.0000 H   0  0  0  0  0  0  0  0  0  0  0  0
  -10.4086   -5.7082    0.0000 H   0  0  0  0  0  0  0  0  0  0  0  0
  -10.7405   -9.3034    0.0000 C   0  0  0  0  0  0  0  0  0 14  0  0
  -12.1671   -7.3399    0.0000 C   0  0  0  0  0  0  0  0  0 15  0  0
   -9.5270  -10.1851    0.0000 O   0  0  0  0  0  0  0  0  0  2  0  0
  -12.1671   -9.7669    0.0000 C   0  0  0  0  0  0  0  0  0 12  0  0
  -13.0488   -8.5534    0.0000 C   0  0  0  0  0  0  0  0  0 11  0  0
  -12.6306   -5.9133    0.0000 O   0  0  0  0  0  0  0  0  0  3  0  0
  -12.7772  -11.1373    0.0000 C   0  0  0  0  0  0  0  0  0 13  0  0
  -11.0350  -10.7510    0.0000 H   0  0  0  0  0  0  0  0  0  0  0  0
  -14.5405   -8.7102    0.0000 C   0  0  0  0  0  0  0  0  0 10  0  0
  -13.6348   -7.1726    0.0000 H   0  0  0  0  0  0  0  0  0  0  0  0
  -14.2690  -11.2941    0.0000 C   0  0  0  0  0  0  0  0  0  8  0  0
  -12.8818  -12.6336    0.0000 H   0  0  0  0  0  0  0  0  0  0  0  0
  -11.3768  -11.6749    0.0000 H   0  0  0  0  0  0  0  0  0  0  0  0
  -15.1506  -10.0805    0.0000 C   0  0  0  0  0  0  0  0  0  9  0  0
  -14.6191   -7.2123    0.0000 H   0  0  0  0  0  0  0  0  0  0  0  0
  -15.9960   -8.3473    0.0000 H   0  0  0  0  0  0  0  0  0  0  0  0
  -15.6172  -11.9516    0.0000 H   0  0  0  0  0  0  0  0  0  0  0  0
  -13.8555  -12.7360    0.0000 H   0  0  0  0  0  0  0  0  0  0  0  0
  -16.3942   -9.2417    0.0000 H   0  0  0  0  0  0  0  0  0  0  0  0
  -16.1926  -11.1595    0.0000 H   0  0  0  0  0  0  0  0  0  0  0  0
  1  2  1  0
  2  3  1  0
  4  1  2  0
  1  5  1  0
  6  4  1  0
  4  7  1  0
  5  8  2  0
  5  9  1  0
 10  6  2  0
  6 11  1  0
 12  8  1  0
  8 10  1  0
 10 13  1  0
 14 12  2  0
 12 15  1  0
 13 14  1  0
 15 16  1  0
 17 15  1  0
 16 18  1  0
 16 19  1  0
 16 20  1  0
 21 17  1  0
 17 22  1  0
 17 23  1  0
 18 24  1  0
 18 25  1  0
 18 26  1  0
 24 21  1  0
 21 27  1  0
 21 28  1  0
 24 29  1  0
 29 30  1  0
 29 31  1  0
 29 32  1  0
 30 33  1  0
 30 34  1  0
 30 35  1  0
 33 36  1  0
 33 37  1  0
 33 38  1  0
 36 39  1  0
 36 40  1  0
 36 41  1  0
 39 42  1  0
 43 39  1  0
 42 44  2  0
 42 45  1  0
 46 43  1  0
 43 47  2  0
 45 46  1  0
 48 45  1  0
 45 49  1  1
 46 50  1  0
 46 51  1  1
 52 48  1  0
 48 53  1  0
 48 54  1  0
 50 55  1  0
 50 56  1  0
 50 57  1  0
 55 52  1  0
 52 58  1  0
 52 59  1  0
 55 60  1  0
 55 61  1  0
M  END
>  <SMILES>  (6) 
O=C1C2CCCCC2C(=O)N1CCCCN1CCN(c2nsc3ccc(O)cc23)CC1

>  <Molecular Weight>  (6) 
442.6

>  <Substrate_ID>  (6) 
MOL0088

>  <Substrate>  (6) 


>  <Substrate_SMILES>  (6) 
O=C1C2CCCCC2C(=O)N1CCCCN1CCN(c2nsc3ccccc23)CC1

>  <Reaction>  (6) 
aromatic hydroxylation

>  <Score>  (6) 
0.2671

>  <Reaction_Score>  (6) 
0.2849

>  <Bond_Score>  (6) 
0.2505

>  <Rank>  (6) 
4

>  <Subtype>  (6) 
3A4

>  <Subtype_Scores>  (6) 
[3A4] SOM_score: 0.2505, Reaction_score: 0.2849, Score: 0.2671


$$$$
