
     RDKit          2D

 50 52  0  0  0  0  0  0  0  0999 V2000
   11.4336    1.1395    0.0000 N   0  0  0  0  0  0  0  0  0  7  0  0
   10.0633    1.7496    0.0000 C   0  0  0  0  0  0  0  0  0 19  0  0
   11.5904   -0.3522    0.0000 C   0  0  0  0  0  0  0  0  0 18  0  0
    8.6930    2.3597    0.0000 C   0  0  0  0  0  0  0  0  0 16  0  0
    9.4532    0.3793    0.0000 H   0  0  0  0  0  0  0  0  0  0  0  0
   10.6734    3.1200    0.0000 H   0  0  0  0  0  0  0  0  0  0  0  0
   11.7472   -1.8440    0.0000 C   0  0  0  0  0  0  0  0  0  9  0  0
   13.0822   -0.1955    0.0000 H   0  0  0  0  0  0  0  0  0  0  0  0
   10.0986   -0.5090    0.0000 H   0  0  0  0  0  0  0  0  0  0  0  0
    7.3226    2.9699    0.0000 N   0  0  0  0  0  0  0  0  0  4  0  0
    9.3031    3.7301    0.0000 H   0  0  0  0  0  0  0  0  0  0  0  0
    8.0829    0.9894    0.0000 H   0  0  0  0  0  0  0  0  0  0  0  0
   13.2390   -1.6872    0.0000 H   0  0  0  0  0  0  0  0  0  0  0  0
   10.2554   -2.0008    0.0000 H   0  0  0  0  0  0  0  0  0  0  0  0
   11.9040   -3.3358    0.0000 H   0  0  0  0  0  0  0  0  0  0  0  0
    6.1091    2.0882    0.0000 C   0  0  0  0  0  0  0  0  0 21  0  0
    7.3439    4.1847    0.0000 H   0  0  0  0  0  0  0  0  0  0  0  0
    4.7388    2.6983    0.0000 C   0  0  0  0  0  0  0  0  0 29  0  0
    6.2659    0.5964    0.0000 O   0  0  0  0  0  0  0  0  0  3  0  0
    4.4269    4.1655    0.0000 C   0  0  0  0  0  0  0  0  0 26  0  0
    3.4398    1.9483    0.0000 C   0  0  0  0  0  0  0  0  0 28  0  0
    2.9352    4.3223    0.0000 N   0  0  0  0  0  0  0  0  0  6  0  0
    5.4306    5.2802    0.0000 C   0  0  0  0  0  0  0  0  0 10  0  0
    3.2830    0.4565    0.0000 C   0  0  0  0  0  0  0  0  0 11  0  0
    2.3250    2.9520    0.0000 C   0  0  0  0  0  0  0  0  0 27  0  0
    2.1852    5.6213    0.0000 H   0  0  0  0  0  0  0  0  0  0  0  0
    6.4259    4.5834    0.0000 H   0  0  0  0  0  0  0  0  0  0  0  0
    4.3159    6.2839    0.0000 H   0  0  0  0  0  0  0  0  0  0  0  0
    6.4343    6.3949    0.0000 H   0  0  0  0  0  0  0  0  0  0  0  0
    4.7748    0.2997    0.0000 H   0  0  0  0  0  0  0  0  0  0  0  0
    1.7912    0.6133    0.0000 H   0  0  0  0  0  0  0  0  0  0  0  0
    3.1801   -0.5223    0.0000 H   0  0  0  0  0  0  0  0  0  0  0  0
    0.8578    2.6401    0.0000 C   0  0  0  0  0  0  0  0  0 12  0  0
    0.3943    1.2135    0.0000 C   0  0  0  0  0  0  0  0  0 22  0  0
   -0.1459    3.7548    0.0000 H   0  0  0  0  0  0  0  0  0  0  0  0
   -1.0323    0.7500    0.0000 C   0  0  0  0  0  0  0  0  0 25  0  0
    1.2760    0.0000    0.0000 C   0  0  0  0  0  0  0  0  0 20  0  0
   -1.0323   -0.7500    0.0000 C   0  0  0  0  0  0  0  0  0 24  0  0
   -2.3313    1.5000    0.0000 C   0  0  0  0  0  0  0  0  0 15  0  0
    2.2309   -0.2381    0.0000 O   0  0  0  0  0  0  0  0  0  2  0  0
    0.3943   -1.2135    0.0000 N   0  0  0  0  0  0  0  0  0  5  0  0
   -2.3313   -1.5000    0.0000 C   0  0  0  0  0  0  0  0  0 14  0  0
   -3.6304    0.7500    0.0000 C   0  0  0  0  0  0  0  0  0 23  0  0
   -2.3313    3.0000    0.0000 H   0  0  0  0  0  0  0  0  0  0  0  0
    0.8578   -2.6401    0.0000 H   0  0  0  0  0  0  0  0  0  0  0  0
   -3.6304   -0.7500    0.0000 C   0  0  0  0  0  0  0  0  0 13  0  0
   -2.3313   -3.0000    0.0000 H   0  0  0  0  0  0  0  0  0  0  0  0
   -4.9294    1.5000    0.0000 F   0  0  0  0  0  0  0  0  0  1  0  0
   -4.9294   -1.5000    0.0000 H   0  0  0  0  0  0  0  0  0  0  0  0
   12.6471    2.0212    0.0000 H   0  0  0  0  0  0  0  0  0  0  0  0
  2  1  1  0
  1  3  1  0
  4  2  1  0
  2  5  1  0
  2  6  1  0
  3  7  1  0
  3  8  1  0
  3  9  1  0
 10  4  1  0
  4 11  1  0
  4 12  1  0
  7 13  1  0
  7 14  1  0
  7 15  1  0
 16 10  1  0
 10 17  1  0
 18 16  1  0
 16 19  2  0
 20 18  2  0
 18 21  1  0
 22 20  1  0
 20 23  1  0
 21 24  1  0
 21 25  2  0
 25 22  1  0
 22 26  1  0
 23 27  1  0
 23 28  1  0
 23 29  1  0
 24 30  1  0
 24 31  1  0
 24 32  1  0
 33 25  1  0
 34 33  2  0
 33 35  1  0
 36 34  1  0
 34 37  1  0
 38 36  2  0
 36 39  1  0
 37 40  2  0
 37 41  1  0
 42 38  1  0
 41 38  1  0
 39 43  2  0
 39 44  1  0
 41 45  1  0
 46 42  2  0
 42 47  1  0
 48 43  1  0
 43 46  1  0
 46 49  1  0
  1 50  1  0
M  END
>  <SMILES>  (1) 
CCNCCNC(=O)c1c(C)[nH]c(C=C2C(=O)Nc3ccc(F)cc32)c1C

>  <Molecular Weight>  (1) 
370.4

>  <Substrate_ID>  (1) 
MOL0055

>  <Substrate>  (1) 


>  <Substrate_SMILES>  (1) 
CCN(CC)CCNC(=O)c1c(C)[nH]c(C=C2C(=O)Nc3ccc(F)cc32)c1C

>  <Reaction>  (1) 
N-dealkylation_(tertiaryN-CH2-alkyl)

>  <Score>  (1) 
0.8744

>  <Reaction_Score>  (1) 
0.8822

>  <Bond_Score>  (1) 
0.8666

>  <Rank>  (1) 
1

>  <Subtype>  (1) 
1A2, 2C8, 2C9, 2C19, 2D6, 3A4

>  <Subtype_Scores>  (1) 
[1A2] SOM_score: 0.6404, Reaction_score: 0.8822, Score: 0.7517
[2C8] SOM_score: 0.6356, Reaction_score: 0.8822, Score: 0.7489
[2C9] SOM_score: 0.4076, Reaction_score: 0.8822, Score: 0.5997
[2C19] SOM_score: 0.6707, Reaction_score: 0.8822, Score: 0.7692
[2D6] SOM_score: 0.6636, Reaction_score: 0.8822, Score: 0.7651
[3A4] SOM_score: 0.8666, Reaction_score: 0.8822, Score: 0.8744


$$$$
