
     RDKit          2D

 16 16  0  0  0  0  0  0  0  0999 V2000
    1.5000    0.0000    0.0000 N   0  0  0  0  0  0  0  0  0  3  0  0
    0.7500   -1.2990    0.0000 C   0  0  0  0  0  0  0  0  0  7  0  0
    0.7500    1.2990    0.0000 C   0  0  0  0  0  0  0  0  0  9  0  0
   -0.7500   -1.2990    0.0000 C   0  0  0  0  0  0  0  0  0  6  0  0
    1.5000   -2.5981    0.0000 H   0  0  0  0  0  0  0  0  0  0  0  0
    1.5000    2.5981    0.0000 C   0  0  0  0  0  0  0  0  0  4  0  0
   -0.7500    1.2990    0.0000 C   0  0  0  0  0  0  0  0  0  8  0  0
   -1.5000    0.0000    0.0000 C   0  0  0  0  0  0  0  0  0 10  0  0
   -1.5000   -2.5981    0.0000 H   0  0  0  0  0  0  0  0  0  0  0  0
    2.2500    3.8971    0.0000 H   0  0  0  0  0  0  0  0  0  0  0  0
    2.7990    1.8481    0.0000 H   0  0  0  0  0  0  0  0  0  0  0  0
    0.2010    3.3481    0.0000 H   0  0  0  0  0  0  0  0  0  0  0  0
   -1.5000    2.5981    0.0000 O   0  0  0  0  0  0  0  0  0  2  0  0
   -3.0000    0.0000    0.0000 O   0  0  0  0  0  0  0  0  0  1  0  0
   -3.0000    2.5981    0.0000 H   0  0  0  0  0  0  0  0  0  0  0  0
    3.0000    0.0000    0.0000 H   0  0  0  0  0  0  0  0  0  0  0  0
  2  1  1  0
  1  3  1  0
  4  2  2  0
  2  5  1  0
  3  6  1  0
  3  7  2  0
  8  4  1  0
  4  9  1  0
  6 10  1  0
  6 11  1  0
  6 12  1  0
  7 13  1  0
  7  8  1  0
 14  8  2  0
 13 15  1  0
  1 16  1  0
M  END
>  <SMILES>  (1) 
Cc1[nH]ccc(=O)c1O

>  <Molecular Weight>  (1) 
125.1

>  <Substrate_ID>  (1) 
MOL0000

>  <Substrate>  (1) 


>  <Substrate_SMILES>  (1) 
Cc1c(O)c(=O)ccn1C

>  <Reaction>  (1) 
N-demethylation_(nCH3)

>  <Score>  (1) 
0.5675

>  <Reaction_Score>  (1) 
0.5089

>  <Bond_Score>  (1) 
0.6329

>  <Rank>  (1) 
1

>  <Subtype>  (1) 
1A2, 2A6, 2E1

>  <Subtype_Scores>  (1) 
[1A2] SOM_score: 0.4115, Reaction_score: 0.5089, Score: 0.4576
[2A6] SOM_score: 0.5437, Reaction_score: 0.5089, Score: 0.5260
[2E1] SOM_score: 0.6329, Reaction_score: 0.5089, Score: 0.5675


$$$$

     RDKit          2D

 20 20  0  0  0  0  0  0  0  0999 V2000
    1.5000    0.0000    0.0000 C   0  0  0  0  0  0  0  0  0  9  0  0
    3.0000    0.0000    0.0000 C   0  0  0  0  0  0  0  0  0  4  0  0
    4.5000   -0.0000    0.0000 O   0  0  0  0  0  0  0  0  0 11  0  0
    0.7500   -1.2990    0.0000 N   0  0  0  0  0  0  0  0  0  3  0  0
    0.7500    1.2990    0.0000 C   0  0  0  0  0  0  0  0  0  8  0  0
   -0.7500   -1.2990    0.0000 C   0  0  0  0  0  0  0  0  0  7  0  0
    1.5000   -2.5981    0.0000 C   0  0  0  0  0  0  0  0  0  5  0  0
    1.5000    2.5981    0.0000 O   0  0  0  0  0  0  0  0  0  2  0  0
   -0.7500    1.2990    0.0000 C   0  0  0  0  0  0  0  0  0 10  0  0
   -1.5000    0.0000    0.0000 C   0  0  0  0  0  0  0  0  0  6  0  0
   -1.5000   -2.5981    0.0000 H   0  0  0  0  0  0  0  0  0  0  0  0
    2.2500   -3.8971    0.0000 H   0  0  0  0  0  0  0  0  0  0  0  0
    0.2010   -3.3481    0.0000 H   0  0  0  0  0  0  0  0  0  0  0  0
    2.6184   -2.1234    0.0000 H   0  0  0  0  0  0  0  0  0  0  0  0
    0.7500    3.8971    0.0000 H   0  0  0  0  0  0  0  0  0  0  0  0
   -1.5000    2.5981    0.0000 O   0  0  0  0  0  0  0  0  0  1  0  0
   -3.0000    0.0000    0.0000 H   0  0  0  0  0  0  0  0  0  0  0  0
    3.1481   -1.2059    0.0000 H   0  0  0  0  0  0  0  0  0  0  0  0
    3.0000    1.5000    0.0000 H   0  0  0  0  0  0  0  0  0  0  0  0
    5.2500    1.2990    0.0000 H   0  0  0  0  0  0  0  0  0  0  0  0
  1  2  1  0
  2  3  1  0
  4  1  1  0
  1  5  2  0
  6  4  1  0
  4  7  1  0
  5  8  1  0
  5  9  1  0
 10  6  2  0
  6 11  1  0
  7 12  1  0
  7 13  1  0
  7 14  1  0
  8 15  1  0
 16  9  2  0
  9 10  1  0
 10 17  1  0
  2 18  1  0
  2 19  1  0
  3 20  1  0
M  END
>  <SMILES>  (2) 
Cn1ccc(=O)c(O)c1CO

>  <Molecular Weight>  (2) 
155.2

>  <Substrate_ID>  (2) 
MOL0000

>  <Substrate>  (2) 


>  <Substrate_SMILES>  (2) 
Cc1c(O)c(=O)ccn1C

>  <Reaction>  (2) 
benzylic_hydroxylation_(c-CH3),aliphatic hydroxylation

>  <Score>  (2) 
0.3302

>  <Reaction_Score>  (2) 
0.2454

>  <Bond_Score>  (2) 
0.4442

>  <Rank>  (2) 
2

>  <Subtype>  (2) 
2A6, 2E1

>  <Subtype_Scores>  (2) 
[2A6] SOM_score: 0.2662, Reaction_score: 0.2454, Score: 0.2556
[2E1] SOM_score: 0.4442, Reaction_score: 0.2454, Score: 0.3302


$$$$
