
     RDKit          2D

 39 41  0  0  0  0  0  0  0  0999 V2000
    1.5000    0.0000    0.0000 N   0  0  0  0  0  0  0  0  0  4  0  0
    0.7500   -1.2990    0.0000 C   0  0  0  0  0  0  0  0  0  8  0  0
    0.7500    1.2990    0.0000 C   0  0  0  0  0  0  0  0  0  9  0  0
   -0.7500   -1.2990    0.0000 C   0  0  0  0  0  0  0  0  0  5  0  0
    2.1595   -1.8121    0.0000 H   0  0  0  0  0  0  0  0  0  0  0  0
    0.4895   -2.7762    0.0000 H   0  0  0  0  0  0  0  0  0  0  0  0
   -0.7500    1.2990    0.0000 C   0  0  0  0  0  0  0  0  0  6  0  0
    0.4895    2.7762    0.0000 H   0  0  0  0  0  0  0  0  0  0  0  0
    2.1595    1.8121    0.0000 H   0  0  0  0  0  0  0  0  0  0  0  0
   -1.5000    0.0000    0.0000 N   0  0  0  0  0  0  0  0  0  3  0  0
   -0.4895   -2.7762    0.0000 H   0  0  0  0  0  0  0  0  0  0  0  0
   -1.4109   -1.7448    0.0000 H   0  0  0  0  0  0  0  0  0  0  0  0
   -1.9935    2.1379    0.0000 H   0  0  0  0  0  0  0  0  0  0  0  0
   -0.4895    2.7762    0.0000 H   0  0  0  0  0  0  0  0  0  0  0  0
   -3.0000    0.0000    0.0000 C   0  0  0  0  0  0  0  0  0  7  0  0
   -3.0000   -1.5000    0.0000 C   0  0  0  0  0  0  0  0  0 11  0  0
   -3.0000    1.5000    0.0000 C   0  0  0  0  0  0  0  0  0 12  0  0
   -4.5000    0.0000    0.0000 H   0  0  0  0  0  0  0  0  0  0  0  0
   -1.7010   -2.2500    0.0000 C   0  0  0  0  0  0  0  0  0 14  0  0
   -4.2990   -2.2500    0.0000 C   0  0  0  0  0  0  0  0  0 16  0  0
   -1.7010    2.2500    0.0000 C   0  0  0  0  0  0  0  0  0 15  0  0
   -4.2990    2.2500    0.0000 C   0  0  0  0  0  0  0  0  0 17  0  0
   -1.7010   -3.7500    0.0000 C   0  0  0  0  0  0  0  0  0 18  0  0
   -0.2590   -1.8366    0.0000 H   0  0  0  0  0  0  0  0  0  0  0  0
   -4.2990   -3.7500    0.0000 C   0  0  0  0  0  0  0  0  0 20  0  0
   -5.5981   -1.5000    0.0000 H   0  0  0  0  0  0  0  0  0  0  0  0
   -1.7010    3.7500    0.0000 C   0  0  0  0  0  0  0  0  0 19  0  0
   -0.2590    1.8366    0.0000 H   0  0  0  0  0  0  0  0  0  0  0  0
   -4.2990    3.7500    0.0000 C   0  0  0  0  0  0  0  0  0 21  0  0
   -5.5981    1.5000    0.0000 H   0  0  0  0  0  0  0  0  0  0  0  0
   -3.0000   -4.5000    0.0000 C   0  0  0  0  0  0  0  0  0 23  0  0
   -0.4019   -4.5000    0.0000 H   0  0  0  0  0  0  0  0  0  0  0  0
   -5.5981   -4.5000    0.0000 H   0  0  0  0  0  0  0  0  0  0  0  0
   -3.0000    4.5000    0.0000 C   0  0  0  0  0  0  0  0  0 24  0  0
   -0.4019    4.5000    0.0000 H   0  0  0  0  0  0  0  0  0  0  0  0
   -5.5981    4.5000    0.0000 H   0  0  0  0  0  0  0  0  0  0  0  0
   -3.0000   -6.0000    0.0000 F   0  0  0  0  0  0  0  0  0  1  0  0
   -3.0000    6.0000    0.0000 F   0  0  0  0  0  0  0  0  0  2  0  0
    3.0000    0.0000    0.0000 H   0  0  0  0  0  0  0  0  0  0  0  0
  2  1  1  0
  1  3  1  0
  4  2  1  0
  2  5  1  0
  2  6  1  0
  3  7  1  0
  3  8  1  0
  3  9  1  0
 10  4  1  0
  4 11  1  0
  4 12  1  0
  7 10  1  0
  7 13  1  0
  7 14  1  0
 15 10  1  0
 16 15  1  0
 15 17  1  0
 15 18  1  1
 19 16  2  0
 16 20  1  0
 17 21  2  0
 22 17  1  0
 23 19  1  0
 19 24  1  0
 20 25  2  0
 20 26  1  0
 21 27  1  0
 21 28  1  0
 29 22  2  0
 22 30  1  0
 31 23  2  0
 23 32  1  0
 25 31  1  0
 25 33  1  0
 27 34  2  0
 27 35  1  0
 34 29  1  0
 29 36  1  0
 37 31  1  0
 34 38  1  0
  1 39  1  0
M  END
>  <SMILES>  (1) 
Fc1ccc(C(c2ccc(F)cc2)N2CCNCC2)cc1

>  <Molecular Weight>  (1) 
288.3

>  <Substrate_ID>  (1) 
MOL0081

>  <Substrate>  (1) 


>  <Substrate_SMILES>  (1) 
Fc1ccc(C(c2ccc(F)cc2)N2CCN(CC=Cc3ccccc3)CC2)cc1

>  <Reaction>  (1) 
N-dealkylation_(tertiaryN-CH2-alkyl)

>  <Score>  (1) 
0.785

>  <Reaction_Score>  (1) 
0.7697

>  <Bond_Score>  (1) 
0.8007

>  <Rank>  (1) 
1

>  <Subtype>  (1) 
2C8, 2C9, 2C19, 2D6, 3A4

>  <Subtype_Scores>  (1) 
[2C8] SOM_score: 0.4321, Reaction_score: 0.7697, Score: 0.5767
[2C9] SOM_score: 0.2976, Reaction_score: 0.7697, Score: 0.4786
[2C19] SOM_score: 0.4362, Reaction_score: 0.7697, Score: 0.5794
[2D6] SOM_score: 0.4626, Reaction_score: 0.7697, Score: 0.5967
[3A4] SOM_score: 0.8007, Reaction_score: 0.7697, Score: 0.7850


$$$$

     RDKit          2D

 20 20  0  0  0  0  0  0  0  0999 V2000
    6.7500   -1.2990    0.0000 O   0  0  0  0  0  0  0  0  0 31  0  0
    5.2500   -1.2990    0.0000 C   0  0  0  0  0  0  0  0  0 10  0  0
    3.7500   -1.2990    0.0000 C   0  0  0  0  0  0  0  0  0 13  0  0
    5.2500    0.2010    0.0000 H   0  0  0  0  0  0  0  0  0  0  0  0
    5.2500   -2.7990    0.0000 H   0  0  0  0  0  0  0  0  0  0  0  0
    3.0000    0.0000    0.0000 C   0  0  0  0  0  0  0  0  0 22  0  0
    3.0000   -2.5981    0.0000 H   0  0  0  0  0  0  0  0  0  0  0  0
    1.5000    0.0000    0.0000 C   0  0  0  0  0  0  0  0  0 25  0  0
    3.7500    1.2990    0.0000 H   0  0  0  0  0  0  0  0  0  0  0  0
    0.7500   -1.2990    0.0000 C   0  0  0  0  0  0  0  0  0 26  0  0
    0.7500    1.2990    0.0000 C   0  0  0  0  0  0  0  0  0 27  0  0
   -0.7500   -1.2990    0.0000 C   0  0  0  0  0  0  0  0  0 28  0  0
    1.5000   -2.5981    0.0000 H   0  0  0  0  0  0  0  0  0  0  0  0
   -0.7500    1.2990    0.0000 C   0  0  0  0  0  0  0  0  0 29  0  0
    1.5000    2.5981    0.0000 H   0  0  0  0  0  0  0  0  0  0  0  0
   -1.5000    0.0000    0.0000 C   0  0  0  0  0  0  0  0  0 30  0  0
   -1.5000   -2.5981    0.0000 H   0  0  0  0  0  0  0  0  0  0  0  0
   -1.5000    2.5981    0.0000 H   0  0  0  0  0  0  0  0  0  0  0  0
   -3.0000    0.0000    0.0000 H   0  0  0  0  0  0  0  0  0  0  0  0
    7.5000    0.0000    0.0000 H   0  0  0  0  0  0  0  0  0  0  0  0
  1  2  1  0
  2  3  1  0
  2  4  1  0
  2  5  1  0
  3  6  2  0
  3  7  1  0
  6  8  1  0
  6  9  1  0
  8 10  2  0
 11  8  1  0
 10 12  1  0
 10 13  1  0
 14 11  2  0
 11 15  1  0
 12 16  2  0
 12 17  1  0
 16 14  1  0
 14 18  1  0
 16 19  1  0
  1 20  1  0
M  END
>  <SMILES>  (2) 
OCC=Cc1ccccc1

>  <Molecular Weight>  (2) 
134.2

>  <Substrate_ID>  (2) 
MOL0081

>  <Substrate>  (2) 


>  <Substrate_SMILES>  (2) 
Fc1ccc(C(c2ccc(F)cc2)N2CCN(CC=Cc3ccccc3)CC2)cc1

>  <Reaction>  (2) 
N-dealkylation_(tertiaryN-CH2-alkyl)

>  <Score>  (2) 
0.785

>  <Reaction_Score>  (2) 
0.7697

>  <Bond_Score>  (2) 
0.8007

>  <Rank>  (2) 
1

>  <Subtype>  (2) 
2C8, 2C9, 2C19, 2D6, 3A4

>  <Subtype_Scores>  (2) 
[2C8] SOM_score: 0.4321, Reaction_score: 0.7697, Score: 0.5767
[2C9] SOM_score: 0.2976, Reaction_score: 0.7697, Score: 0.4786
[2C19] SOM_score: 0.4362, Reaction_score: 0.7697, Score: 0.5794
[2D6] SOM_score: 0.4626, Reaction_score: 0.7697, Score: 0.5967
[3A4] SOM_score: 0.8007, Reaction_score: 0.7697, Score: 0.7850


$$$$

     RDKit          2D

 18 18  0  0  0  0  0  0  0  0999 V2000
    5.2500   -1.2990    0.0000 C   0  0  0  0  0  0  0  0  0 10  0  0
    6.0000    0.0000    0.0000 O   0  0  0  0  0  0  0  0  0 31  0  0
    3.7500   -1.2990    0.0000 C   0  0  0  0  0  0  0  0  0 13  0  0
    6.0000   -2.5981    0.0000 H   0  0  0  0  0  0  0  0  0  0  0  0
    3.0000    0.0000    0.0000 C   0  0  0  0  0  0  0  0  0 22  0  0
    3.0000   -2.5981    0.0000 H   0  0  0  0  0  0  0  0  0  0  0  0
    1.5000    0.0000    0.0000 C   0  0  0  0  0  0  0  0  0 25  0  0
    3.7500    1.2990    0.0000 H   0  0  0  0  0  0  0  0  0  0  0  0
    0.7500   -1.2990    0.0000 C   0  0  0  0  0  0  0  0  0 26  0  0
    0.7500    1.2990    0.0000 C   0  0  0  0  0  0  0  0  0 27  0  0
   -0.7500   -1.2990    0.0000 C   0  0  0  0  0  0  0  0  0 28  0  0
    1.5000   -2.5981    0.0000 H   0  0  0  0  0  0  0  0  0  0  0  0
   -0.7500    1.2990    0.0000 C   0  0  0  0  0  0  0  0  0 29  0  0
    1.5000    2.5981    0.0000 H   0  0  0  0  0  0  0  0  0  0  0  0
   -1.5000    0.0000    0.0000 C   0  0  0  0  0  0  0  0  0 30  0  0
   -1.5000   -2.5981    0.0000 H   0  0  0  0  0  0  0  0  0  0  0  0
   -1.5000    2.5981    0.0000 H   0  0  0  0  0  0  0  0  0  0  0  0
   -3.0000    0.0000    0.0000 H   0  0  0  0  0  0  0  0  0  0  0  0
  1  2  2  0
  1  3  1  0
  1  4  1  0
  3  5  2  0
  3  6  1  0
  5  7  1  0
  5  8  1  0
  7  9  2  0
 10  7  1  0
  9 11  1  0
  9 12  1  0
 13 10  2  0
 10 14  1  0
 11 15  2  0
 11 16  1  0
 15 13  1  0
 13 17  1  0
 15 18  1  0
M  END
>  <SMILES>  (3) 
O=CC=Cc1ccccc1

>  <Molecular Weight>  (3) 
132.2

>  <Substrate_ID>  (3) 
MOL0081

>  <Substrate>  (3) 


>  <Substrate_SMILES>  (3) 
Fc1ccc(C(c2ccc(F)cc2)N2CCN(CC=Cc3ccccc3)CC2)cc1

>  <Reaction>  (3) 
N-dealkylation_(hetero_ring)

>  <Score>  (3) 
0.785

>  <Reaction_Score>  (3) 
0.7697

>  <Bond_Score>  (3) 
0.8007

>  <Rank>  (3) 
1

>  <Subtype>  (3) 
2C8, 2C9, 2C19, 2D6, 3A4

>  <Subtype_Scores>  (3) 
[2C8] SOM_score: 0.4321, Reaction_score: 0.7697, Score: 0.5767
[2C9] SOM_score: 0.2976, Reaction_score: 0.7697, Score: 0.4786
[2C19] SOM_score: 0.4362, Reaction_score: 0.7697, Score: 0.5794
[2D6] SOM_score: 0.4626, Reaction_score: 0.7697, Score: 0.5967
[3A4] SOM_score: 0.8007, Reaction_score: 0.7697, Score: 0.7850


$$$$

     RDKit          2D

 33 34  0  0  0  0  0  0  0  0999 V2000
    1.5000    0.0000    0.0000 N   0  0  0  0  0  0  0  0  0  3  0  0
    3.0000    0.0000    0.0000 H   0  0  0  0  0  0  0  0  0  0  0  0
    0.7500    1.2990    0.0000 C   0  0  0  0  0  0  0  0  0  5  0  0
    0.7500   -1.2990    0.0000 C   0  0  0  0  0  0  0  0  0  6  0  0
   -0.7500    1.2990    0.0000 C   0  0  0  0  0  0  0  0  0  8  0  0
    2.1595    1.8121    0.0000 H   0  0  0  0  0  0  0  0  0  0  0  0
    0.4895    2.7762    0.0000 H   0  0  0  0  0  0  0  0  0  0  0  0
   -0.7500   -1.2990    0.0000 C   0  0  0  0  0  0  0  0  0  9  0  0
    0.4895   -2.7762    0.0000 H   0  0  0  0  0  0  0  0  0  0  0  0
    2.1595   -1.8121    0.0000 H   0  0  0  0  0  0  0  0  0  0  0  0
   -1.5000    0.0000    0.0000 N   0  0  0  0  0  0  0  0  0  4  0  0
   -0.4895    2.7762    0.0000 H   0  0  0  0  0  0  0  0  0  0  0  0
   -2.0865    1.9801    0.0000 H   0  0  0  0  0  0  0  0  0  0  0  0
   -2.0865   -1.9801    0.0000 H   0  0  0  0  0  0  0  0  0  0  0  0
   -0.4895   -2.7762    0.0000 H   0  0  0  0  0  0  0  0  0  0  0  0
   -3.0000    0.0000    0.0000 C   0  0  0  0  0  0  0  0  0 10  0  0
   -4.5000    0.0000    0.0000 C   0  0  0  0  0  0  0  0  0 13  0  0
   -3.1828    1.4888    0.0000 H   0  0  0  0  0  0  0  0  0  0  0  0
   -3.1828   -1.4888    0.0000 H   0  0  0  0  0  0  0  0  0  0  0  0
   -5.2500   -1.2990    0.0000 C   0  0  0  0  0  0  0  0  0 22  0  0
   -5.2500    1.2990    0.0000 H   0  0  0  0  0  0  0  0  0  0  0  0
   -6.7500   -1.2990    0.0000 C   0  0  0  0  0  0  0  0  0 25  0  0
   -4.5000   -2.5981    0.0000 H   0  0  0  0  0  0  0  0  0  0  0  0
   -7.5000    0.0000    0.0000 C   0  0  0  0  0  0  0  0  0 26  0  0
   -7.5000   -2.5981    0.0000 C   0  0  0  0  0  0  0  0  0 27  0  0
   -9.0000   -0.0000    0.0000 C   0  0  0  0  0  0  0  0  0 28  0  0
   -6.7500    1.2990    0.0000 H   0  0  0  0  0  0  0  0  0  0  0  0
   -9.0000   -2.5981    0.0000 C   0  0  0  0  0  0  0  0  0 29  0  0
   -6.7500   -3.8971    0.0000 H   0  0  0  0  0  0  0  0  0  0  0  0
   -9.7500   -1.2990    0.0000 C   0  0  0  0  0  0  0  0  0 30  0  0
   -9.7500    1.2990    0.0000 H   0  0  0  0  0  0  0  0  0  0  0  0
   -9.7500   -3.8971    0.0000 H   0  0  0  0  0  0  0  0  0  0  0  0
  -11.2500   -1.2990    0.0000 H   0  0  0  0  0  0  0  0  0  0  0  0
  1  2  1  0
  1  3  1  0
  4  1  1  0
  3  5  1  0
  3  6  1  0
  3  7  1  0
  8  4  1  0
  4  9  1  0
  4 10  1  0
  5 11  1  0
  5 12  1  0
  5 13  1  0
 11  8  1  0
  8 14  1  0
  8 15  1  0
 11 16  1  0
 16 17  1  0
 16 18  1  0
 16 19  1  0
 17 20  2  0
 17 21  1  0
 20 22  1  0
 20 23  1  0
 22 24  2  0
 25 22  1  0
 24 26  1  0
 24 27  1  0
 28 25  2  0
 25 29  1  0
 26 30  2  0
 26 31  1  0
 30 28  1  0
 28 32  1  0
 30 33  1  0
M  END
>  <SMILES>  (4) 
C(=Cc1ccccc1)CN1CCNCC1

>  <Molecular Weight>  (4) 
202.3

>  <Substrate_ID>  (4) 
MOL0081

>  <Substrate>  (4) 


>  <Substrate_SMILES>  (4) 
Fc1ccc(C(c2ccc(F)cc2)N2CCN(CC=Cc3ccccc3)CC2)cc1

>  <Reaction>  (4) 
N-dealkylation_(hetero_ring)

>  <Score>  (4) 
0.3182

>  <Reaction_Score>  (4) 
0.2808

>  <Bond_Score>  (4) 
0.3606

>  <Rank>  (4) 
2

>  <Subtype>  (4) 
3A4

>  <Subtype_Scores>  (4) 
[3A4] SOM_score: 0.3606, Reaction_score: 0.2808, Score: 0.3182


$$$$

     RDKit          2D

 24 25  0  0  0  0  0  0  0  0999 V2000
    1.5000   -2.5981    0.0000 C   0  0  0  0  0  0  0  0  0  7  0  0
    3.0000   -2.5981    0.0000 O   0  0  0  0  0  0  0  0  0 31  0  0
    0.7500   -1.2990    0.0000 C   0  0  0  0  0  0  0  0  0 11  0  0
    0.7500   -3.8971    0.0000 C   0  0  0  0  0  0  0  0  0 12  0  0
    1.5000   -0.0000    0.0000 C   0  0  0  0  0  0  0  0  0 14  0  0
   -0.7500   -1.2990    0.0000 C   0  0  0  0  0  0  0  0  0 16  0  0
   -0.7500   -3.8971    0.0000 C   0  0  0  0  0  0  0  0  0 15  0  0
    1.5000   -5.1962    0.0000 C   0  0  0  0  0  0  0  0  0 17  0  0
    0.7500    1.2990    0.0000 C   0  0  0  0  0  0  0  0  0 18  0  0
    3.0000    0.0000    0.0000 H   0  0  0  0  0  0  0  0  0  0  0  0
   -1.5000   -0.0000    0.0000 C   0  0  0  0  0  0  0  0  0 20  0  0
   -1.3423   -2.0850    0.0000 H   0  0  0  0  0  0  0  0  0  0  0  0
   -1.5000   -5.1962    0.0000 C   0  0  0  0  0  0  0  0  0 19  0  0
   -1.3423   -3.1112    0.0000 H   0  0  0  0  0  0  0  0  0  0  0  0
    0.7500   -6.4952    0.0000 C   0  0  0  0  0  0  0  0  0 21  0  0
    3.0000   -5.1962    0.0000 H   0  0  0  0  0  0  0  0  0  0  0  0
   -0.7500    1.2990    0.0000 C   0  0  0  0  0  0  0  0  0 23  0  0
    1.5000    2.5981    0.0000 H   0  0  0  0  0  0  0  0  0  0  0  0
   -3.0000   -0.0000    0.0000 H   0  0  0  0  0  0  0  0  0  0  0  0
   -0.7500   -6.4952    0.0000 C   0  0  0  0  0  0  0  0  0 24  0  0
   -3.0000   -5.1962    0.0000 H   0  0  0  0  0  0  0  0  0  0  0  0
    1.5000   -7.7942    0.0000 H   0  0  0  0  0  0  0  0  0  0  0  0
   -1.5000    2.5981    0.0000 F   0  0  0  0  0  0  0  0  0  1  0  0
   -1.5000   -7.7942    0.0000 F   0  0  0  0  0  0  0  0  0  2  0  0
  1  2  2  0
  3  1  1  0
  1  4  1  0
  5  3  2  0
  3  6  1  0
  4  7  2  0
  8  4  1  0
  9  5  1  0
  5 10  1  0
  6 11  2  0
  6 12  1  0
  7 13  1  0
  7 14  1  0
 15  8  2  0
  8 16  1  0
 17  9  2  0
  9 18  1  0
 11 17  1  0
 11 19  1  0
 13 20  2  0
 13 21  1  0
 20 15  1  0
 15 22  1  0
 23 17  1  0
 20 24  1  0
M  END
>  <SMILES>  (5) 
O=C(c1ccc(F)cc1)c1ccc(F)cc1

>  <Molecular Weight>  (5) 
218.2

>  <Substrate_ID>  (5) 
MOL0081

>  <Substrate>  (5) 


>  <Substrate_SMILES>  (5) 
Fc1ccc(C(c2ccc(F)cc2)N2CCN(CC=Cc3ccccc3)CC2)cc1

>  <Reaction>  (5) 
N-dealkylation_(hetero_ring)

>  <Score>  (5) 
0.3182

>  <Reaction_Score>  (5) 
0.2808

>  <Bond_Score>  (5) 
0.3606

>  <Rank>  (5) 
2

>  <Subtype>  (5) 
3A4

>  <Subtype_Scores>  (5) 
[3A4] SOM_score: 0.3606, Reaction_score: 0.2808, Score: 0.3182


$$$$
