
     RDKit          2D

 68 70  0  0  0  0  0  0  0  0999 V2000
   -6.4913    3.8971    0.0000 C   0  0  0  0  0  0  0  0  0 13  0  0
   -7.2413    5.1962    0.0000 O   0  0  0  0  0  0  0  0  0 36  0  0
   -6.4913    6.4952    0.0000 H   0  0  0  0  0  0  0  0  0  0  0  0
   -5.7413    2.5981    0.0000 C   0  0  0  0  0  0  0  0  0 34  0  0
   -7.4373    3.6259    0.0000 H   0  0  0  0  0  0  0  0  0  0  0  0
   -5.2933    4.7999    0.0000 H   0  0  0  0  0  0  0  0  0  0  0  0
   -4.9913    1.2990    0.0000 C   0  0  0  0  0  0  0  0  0 31  0  0
   -7.0403    1.8481    0.0000 C   0  0  0  0  0  0  0  0  0 14  0  0
   -4.4422    3.3481    0.0000 C   0  0  0  0  0  0  0  0  0 15  0  0
   -6.2903    0.5490    0.0000 N   0  0  0  0  0  0  0  0  0 11  0  0
   -4.2413    0.0000    0.0000 C   0  0  0  0  0  0  0  0  0 25  0  0
   -3.6922    2.0490    0.0000 H   0  0  0  0  0  0  0  0  0  0  0  0
   -8.5394    1.7959    0.0000 H   0  0  0  0  0  0  0  0  0  0  0  0
   -7.5324    2.7004    0.0000 H   0  0  0  0  0  0  0  0  0  0  0  0
   -6.8206    1.0818    0.0000 H   0  0  0  0  0  0  0  0  0  0  0  0
   -3.1432    4.0981    0.0000 H   0  0  0  0  0  0  0  0  0  0  0  0
   -5.0283    4.7288    0.0000 H   0  0  0  0  0  0  0  0  0  0  0  0
   -3.6922    2.0490    0.0000 H   0  0  0  0  0  0  0  0  0  0  0  0
   -7.5894    1.2990    0.0000 C   0  0  0  0  0  0  0  0  0 26  0  0
   -6.4732   -0.9398    0.0000 H   0  0  0  0  0  0  0  0  0  0  0  0
   -5.1440   -1.1979    0.0000 O   0  0  0  0  0  0  0  0  0  6  0  0
   -2.7413    0.0000    0.0000 N   0  0  0  0  0  0  0  0  0 12  0  0
   -8.8884    0.5490    0.0000 C   0  0  0  0  0  0  0  0  0 33  0  0
   -7.9523    2.7545    0.0000 O   0  0  0  0  0  0  0  0  0  7  0  0
   -1.8596    1.2135    0.0000 C   0  0  0  0  0  0  0  0  0 22  0  0
   -1.8596   -1.2135    0.0000 C   0  0  0  0  0  0  0  0  0 30  0  0
  -10.1874   -0.2010    0.0000 F   0  0  0  0  0  0  0  0  0  1  0  0
   -9.6384    1.8481    0.0000 F   0  0  0  0  0  0  0  0  0  2  0  0
   -8.1384   -0.7500    0.0000 F   0  0  0  0  0  0  0  0  0  3  0  0
   -0.4330    0.7500    0.0000 C   0  0  0  0  0  0  0  0  0 32  0  0
   -1.2495    2.5838    0.0000 H   0  0  0  0  0  0  0  0  0  0  0  0
   -3.1586    1.9635    0.0000 H   0  0  0  0  0  0  0  0  0  0  0  0
   -0.4330   -0.7500    0.0000 C   0  0  0  0  0  0  0  0  0 28  0  0
   -3.1586   -1.9635    0.0000 C   0  0  0  0  0  0  0  0  0 24  0  0
   -1.2495   -2.5838    0.0000 H   0  0  0  0  0  0  0  0  0  0  0  0
    0.8660    0.0000    0.0000 C   0  0  0  0  0  0  0  0  0 35  0  0
    0.0055    2.1845    0.0000 H   0  0  0  0  0  0  0  0  0  0  0  0
    0.0055   -2.1845    0.0000 H   0  0  0  0  0  0  0  0  0  0  0  0
   -4.5394   -1.3775    0.0000 O   0  0  0  0  0  0  0  0  0  5  0  0
   -3.1586   -3.4635    0.0000 N   0  0  0  0  0  0  0  0  0 10  0  0
    1.8302    1.1491    0.0000 C   0  0  0  0  0  0  0  0  0 16  0  0
    1.8302   -1.1491    0.0000 C   0  0  0  0  0  0  0  0  0 17  0  0
   -4.4577   -4.2135    0.0000 C   0  0  0  0  0  0  0  0  0 29  0  0
   -1.7779   -4.0496    0.0000 H   0  0  0  0  0  0  0  0  0  0  0  0
    2.7944    2.2981    0.0000 H   0  0  0  0  0  0  0  0  0  0  0  0
    3.0882    0.3321    0.0000 H   0  0  0  0  0  0  0  0  0  0  0  0
    0.8072    2.2461    0.0000 H   0  0  0  0  0  0  0  0  0  0  0  0
    2.7944   -2.2981    0.0000 H   0  0  0  0  0  0  0  0  0  0  0  0
    3.0882   -0.3321    0.0000 H   0  0  0  0  0  0  0  0  0  0  0  0
    0.8072   -2.2461    0.0000 H   0  0  0  0  0  0  0  0  0  0  0  0
   -5.2077   -2.9145    0.0000 C   0  0  0  0  0  0  0  0  0 18  0  0
   -3.7077   -5.5126    0.0000 C   0  0  0  0  0  0  0  0  0 21  0  0
   -5.7567   -4.9635    0.0000 H   0  0  0  0  0  0  0  0  0  0  0  0
   -6.1104   -1.7166    0.0000 N   0  0  0  0  0  0  0  0  0  8  0  0
   -2.9577   -6.8116    0.0000 C   0  0  0  0  0  0  0  0  0 27  0  0
   -5.0884   -6.0986    0.0000 H   0  0  0  0  0  0  0  0  0  0  0  0
   -2.3269   -4.9265    0.0000 H   0  0  0  0  0  0  0  0  0  0  0  0
   -1.9540   -7.9263    0.0000 C   0  0  0  0  0  0  0  0  0 20  0  0
   -4.3280   -7.4217    0.0000 C   0  0  0  0  0  0  0  0  0 23  0  0
   -1.7441   -5.9299    0.0000 H   0  0  0  0  0  0  0  0  0  0  0  0
   -2.7040   -9.2254    0.0000 C   0  0  0  0  0  0  0  0  0 19  0  0
   -0.9503   -6.8116    0.0000 H   0  0  0  0  0  0  0  0  0  0  0  0
   -0.7405   -8.8080    0.0000 H   0  0  0  0  0  0  0  0  0  0  0  0
   -4.1712   -8.9135    0.0000 N   0  0  0  0  0  0  0  0  0  9  0  0
   -5.7088   -6.8356    0.0000 O   0  0  0  0  0  0  0  0  0  4  0  0
   -1.3337   -9.8355    0.0000 H   0  0  0  0  0  0  0  0  0  0  0  0
   -3.1675  -10.6519    0.0000 H   0  0  0  0  0  0  0  0  0  0  0  0
   -5.2859   -9.9172    0.0000 H   0  0  0  0  0  0  0  0  0  0  0  0
  1  2  1  0
  2  3  1  0
  4  1  1  0
  1  5  1  0
  1  6  1  0
  7  4  1  0
  4  8  1  0
  4  9  1  0
 10  7  1  0
  7 11  1  0
  7 12  1  6
  8 13  1  0
  8 14  1  0
  8 15  1  0
  9 16  1  0
  9 17  1  0
  9 18  1  0
 19 10  1  0
 10 20  1  0
 11 21  2  0
 11 22  1  0
 23 19  1  0
 19 24  2  0
 22 25  1  0
 26 22  1  0
 27 23  1  0
 23 28  1  0
 23 29  1  0
 25 30  1  0
 25 31  1  0
 25 32  1  0
 33 26  1  0
 26 34  1  0
 26 35  1  6
 30 33  1  0
 36 30  1  0
 30 37  1  1
 33 36  1  0
 33 38  1  1
 34 39  2  0
 34 40  1  0
 36 41  1  0
 36 42  1  0
 40 43  1  0
 40 44  1  0
 41 45  1  0
 41 46  1  0
 41 47  1  0
 42 48  1  0
 42 49  1  0
 42 50  1  0
 43 51  1  0
 43 52  1  0
 43 53  1  6
 51 54  3  0
 52 55  1  0
 52 56  1  0
 52 57  1  0
 55 58  1  0
 59 55  1  0
 55 60  1  1
 58 61  1  0
 58 62  1  0
 58 63  1  0
 64 59  1  0
 59 65  2  0
 61 64  1  0
 61 66  1  0
 61 67  1  0
 64 68  1  0
M  END
>  <SMILES>  (1) 
CC(C)(CO)C(NC(=O)C(F)(F)F)C(=O)N1CC2C(C1C(=O)NC(C#N)CC1CCNC1=O)C2(C)C

>  <Molecular Weight>  (1) 
515.5

>  <Substrate_ID>  (1) 
MOL0015

>  <Substrate>  (1) 


>  <Substrate_SMILES>  (1) 
CC(C)(C)C(NC(=O)C(F)(F)F)C(=O)N1CC2C(C1C(=O)NC(C#N)CC1CCNC1=O)C2(C)C

>  <Reaction>  (1) 
aliphatic hydroxylation

>  <Score>  (1) 
0.4503

>  <Reaction_Score>  (1) 
0.4421

>  <Bond_Score>  (1) 
0.4585

>  <Rank>  (1) 
1

>  <Subtype>  (1) 
2C8, 3A4

>  <Subtype_Scores>  (1) 
[2C8] SOM_score: 0.1990, Reaction_score: 0.4421, Score: 0.2966
[3A4] SOM_score: 0.4585, Reaction_score: 0.4421, Score: 0.4503


$$$$

     RDKit          2D

 68 70  0  0  0  0  0  0  0  0999 V2000
   -3.5117    7.6869    0.0000 C   0  0  0  0  0  0  0  0  0 20  0  0
   -4.5154    8.8017    0.0000 C   0  0  0  0  0  0  0  0  0 19  0  0
   -5.2654   10.1007    0.0000 O   0  0  0  0  0  0  0  0  0 36  0  0
   -5.8857    8.1915    0.0000 N   0  0  0  0  0  0  0  0  0  9  0  0
   -4.2617    6.3879    0.0000 C   0  0  0  0  0  0  0  0  0 27  0  0
   -2.5080    8.8017    0.0000 H   0  0  0  0  0  0  0  0  0  0  0  0
   -2.8145    7.3005    0.0000 H   0  0  0  0  0  0  0  0  0  0  0  0
   -2.8914    5.7778    0.0000 C   0  0  0  0  0  0  0  0  0 21  0  0
   -5.7289    6.6998    0.0000 C   0  0  0  0  0  0  0  0  0 23  0  0
   -4.5479    4.9154    0.0000 H   0  0  0  0  0  0  0  0  0  0  0  0
   -1.5211    5.1677    0.0000 C   0  0  0  0  0  0  0  0  0 29  0  0
   -3.5015    4.4075    0.0000 H   0  0  0  0  0  0  0  0  0  0  0  0
   -2.4808    6.4611    0.0000 H   0  0  0  0  0  0  0  0  0  0  0  0
   -6.9577    5.8394    0.0000 O   0  0  0  0  0  0  0  0  0  4  0  0
   -2.1312    3.7974    0.0000 N   0  0  0  0  0  0  0  0  0 10  0  0
   -0.1507    4.5576    0.0000 C   0  0  0  0  0  0  0  0  0 18  0  0
   -0.9110    6.5380    0.0000 H   0  0  0  0  0  0  0  0  0  0  0  0
   -1.2495    2.5838    0.0000 C   0  0  0  0  0  0  0  0  0 24  0  0
   -3.6230    3.6406    0.0000 H   0  0  0  0  0  0  0  0  0  0  0  0
    1.2196    3.9475    0.0000 N   0  0  0  0  0  0  0  0  0  8  0  0
   -1.8596    1.2135    0.0000 C   0  0  0  0  0  0  0  0  0 30  0  0
    0.1600    3.0969    0.0000 O   0  0  0  0  0  0  0  0  0  5  0  0
   -0.4330    0.7500    0.0000 C   0  0  0  0  0  0  0  0  0 28  0  0
   -2.7413    0.0000    0.0000 N   0  0  0  0  0  0  0  0  0 12  0  0
   -3.1586    1.9635    0.0000 H   0  0  0  0  0  0  0  0  0  0  0  0
   -0.4330   -0.7500    0.0000 C   0  0  0  0  0  0  0  0  0 32  0  0
    0.8660    0.0000    0.0000 C   0  0  0  0  0  0  0  0  0 35  0  0
    0.1771    2.1203    0.0000 H   0  0  0  0  0  0  0  0  0  0  0  0
   -4.2413    0.0000    0.0000 C   0  0  0  0  0  0  0  0  0 25  0  0
   -1.8596   -1.2135    0.0000 C   0  0  0  0  0  0  0  0  0 22  0  0
    0.0055   -2.1845    0.0000 H   0  0  0  0  0  0  0  0  0  0  0  0
    1.8302    1.1491    0.0000 C   0  0  0  0  0  0  0  0  0 16  0  0
    1.8302   -1.1491    0.0000 C   0  0  0  0  0  0  0  0  0 17  0  0
   -4.9913    1.2990    0.0000 C   0  0  0  0  0  0  0  0  0 31  0  0
   -4.9913   -1.2990    0.0000 O   0  0  0  0  0  0  0  0  0  6  0  0
   -3.1586   -1.9635    0.0000 H   0  0  0  0  0  0  0  0  0  0  0  0
   -1.2495   -2.5838    0.0000 H   0  0  0  0  0  0  0  0  0  0  0  0
    2.7944    2.2981    0.0000 H   0  0  0  0  0  0  0  0  0  0  0  0
    3.0882    0.3321    0.0000 H   0  0  0  0  0  0  0  0  0  0  0  0
    0.9486    2.3626    0.0000 H   0  0  0  0  0  0  0  0  0  0  0  0
    2.7944   -2.2981    0.0000 H   0  0  0  0  0  0  0  0  0  0  0  0
    3.0882   -0.3321    0.0000 H   0  0  0  0  0  0  0  0  0  0  0  0
    0.8072   -2.2461    0.0000 H   0  0  0  0  0  0  0  0  0  0  0  0
   -6.2903    0.5490    0.0000 N   0  0  0  0  0  0  0  0  0 11  0  0
   -5.7413    2.5981    0.0000 C   0  0  0  0  0  0  0  0  0 34  0  0
   -3.6922    2.0490    0.0000 H   0  0  0  0  0  0  0  0  0  0  0  0
   -7.5894    1.2990    0.0000 C   0  0  0  0  0  0  0  0  0 26  0  0
   -6.2903   -0.9510    0.0000 H   0  0  0  0  0  0  0  0  0  0  0  0
   -6.4913    3.8971    0.0000 C   0  0  0  0  0  0  0  0  0 13  0  0
   -7.0403    1.8481    0.0000 C   0  0  0  0  0  0  0  0  0 14  0  0
   -4.4422    3.3481    0.0000 C   0  0  0  0  0  0  0  0  0 15  0  0
   -8.8884    0.5490    0.0000 C   0  0  0  0  0  0  0  0  0 33  0  0
   -7.7722    2.7879    0.0000 O   0  0  0  0  0  0  0  0  0  7  0  0
   -7.3940    5.0950    0.0000 H   0  0  0  0  0  0  0  0  0  0  0  0
   -5.1105    4.4832    0.0000 H   0  0  0  0  0  0  0  0  0  0  0  0
   -5.2933    4.7999    0.0000 H   0  0  0  0  0  0  0  0  0  0  0  0
   -8.5394    1.7959    0.0000 H   0  0  0  0  0  0  0  0  0  0  0  0
   -7.6264    3.2288    0.0000 H   0  0  0  0  0  0  0  0  0  0  0  0
   -6.6269    0.4062    0.0000 H   0  0  0  0  0  0  0  0  0  0  0  0
   -3.1432    4.0981    0.0000 H   0  0  0  0  0  0  0  0  0  0  0  0
   -5.0283    4.7288    0.0000 H   0  0  0  0  0  0  0  0  0  0  0  0
   -3.6922    2.0490    0.0000 H   0  0  0  0  0  0  0  0  0  0  0  0
  -10.1874   -0.2010    0.0000 F   0  0  0  0  0  0  0  0  0  1  0  0
   -9.6384    1.8481    0.0000 F   0  0  0  0  0  0  0  0  0  2  0  0
   -8.1384   -0.7500    0.0000 F   0  0  0  0  0  0  0  0  0  3  0  0
   -3.3019    9.6833    0.0000 H   0  0  0  0  0  0  0  0  0  0  0  0
   -7.1848    8.9415    0.0000 H   0  0  0  0  0  0  0  0  0  0  0  0
   -4.5154   11.3997    0.0000 H   0  0  0  0  0  0  0  0  0  0  0  0
  1  2  1  0
  2  3  1  0
  2  4  1  0
  5  1  1  0
  1  6  1  0
  1  7  1  0
  8  5  1  0
  9  5  1  0
  5 10  1  6
 11  8  1  0
  8 12  1  0
  8 13  1  0
  4  9  1  0
  9 14  2  0
 15 11  1  0
 11 16  1  0
 11 17  1  6
 18 15  1  0
 15 19  1  0
 16 20  3  0
 21 18  1  0
 18 22  2  0
 23 21  1  0
 21 24  1  0
 21 25  1  1
 26 23  1  0
 23 27  1  0
 23 28  1  6
 29 24  1  0
 24 30  1  0
 30 26  1  0
 27 26  1  0
 26 31  1  6
 27 32  1  0
 27 33  1  0
 34 29  1  0
 29 35  2  0
 30 36  1  0
 30 37  1  0
 32 38  1  0
 32 39  1  0
 32 40  1  0
 33 41  1  0
 33 42  1  0
 33 43  1  0
 44 34  1  0
 34 45  1  0
 34 46  1  6
 47 44  1  0
 44 48  1  0
 45 49  1  0
 45 50  1  0
 45 51  1  0
 52 47  1  0
 47 53  2  0
 49 54  1  0
 49 55  1  0
 49 56  1  0
 50 57  1  0
 50 58  1  0
 50 59  1  0
 51 60  1  0
 51 61  1  0
 51 62  1  0
 63 52  1  0
 52 64  1  0
 52 65  1  0
  2 66  1  0
  4 67  1  0
  3 68  1  0
M  END
>  <SMILES>  (2) 
CC(C)(C)C(NC(=O)C(F)(F)F)C(=O)N1CC2C(C1C(=O)NC(C#N)CC1CC(O)NC1=O)C2(C)C

>  <Molecular Weight>  (2) 
515.5

>  <Substrate_ID>  (2) 
MOL0015

>  <Substrate>  (2) 


>  <Substrate_SMILES>  (2) 
CC(C)(C)C(NC(=O)C(F)(F)F)C(=O)N1CC2C(C1C(=O)NC(C#N)CC1CCNC1=O)C2(C)C

>  <Reaction>  (2) 
aliphatic_hydroxylation_(sec_carbon_next_to_SP2,in_a_ring),aliphatic hydroxylation

>  <Score>  (2) 
0.396

>  <Reaction_Score>  (2) 
0.3762

>  <Bond_Score>  (2) 
0.4168

>  <Rank>  (2) 
2

>  <Subtype>  (2) 
2C8, 3A4

>  <Subtype_Scores>  (2) 
[2C8] SOM_score: 0.1474, Reaction_score: 0.3762, Score: 0.2354
[3A4] SOM_score: 0.4168, Reaction_score: 0.3762, Score: 0.3960


$$$$

     RDKit          2D

 66 68  0  0  0  0  0  0  0  0999 V2000
   -3.5117    7.6869    0.0000 C   0  0  0  0  0  0  0  0  0 20  0  0
   -4.5154    8.8017    0.0000 C   0  0  0  0  0  0  0  0  0 19  0  0
   -4.2035   10.2689    0.0000 O   0  0  0  0  0  0  0  0  0 36  0  0
   -5.8857    8.1915    0.0000 N   0  0  0  0  0  0  0  0  0  9  0  0
   -4.2617    6.3879    0.0000 C   0  0  0  0  0  0  0  0  0 27  0  0
   -2.5080    8.8017    0.0000 H   0  0  0  0  0  0  0  0  0  0  0  0
   -2.8145    7.3005    0.0000 H   0  0  0  0  0  0  0  0  0  0  0  0
   -2.8914    5.7778    0.0000 C   0  0  0  0  0  0  0  0  0 21  0  0
   -5.7289    6.6998    0.0000 C   0  0  0  0  0  0  0  0  0 23  0  0
   -4.5479    4.9154    0.0000 H   0  0  0  0  0  0  0  0  0  0  0  0
   -1.5211    5.1677    0.0000 C   0  0  0  0  0  0  0  0  0 29  0  0
   -3.5015    4.4075    0.0000 H   0  0  0  0  0  0  0  0  0  0  0  0
   -2.4808    6.4611    0.0000 H   0  0  0  0  0  0  0  0  0  0  0  0
   -6.9577    5.8394    0.0000 O   0  0  0  0  0  0  0  0  0  4  0  0
   -2.1312    3.7974    0.0000 N   0  0  0  0  0  0  0  0  0 10  0  0
   -0.1507    4.5576    0.0000 C   0  0  0  0  0  0  0  0  0 18  0  0
   -0.9110    6.5380    0.0000 H   0  0  0  0  0  0  0  0  0  0  0  0
   -1.2495    2.5838    0.0000 C   0  0  0  0  0  0  0  0  0 24  0  0
   -3.6230    3.6406    0.0000 H   0  0  0  0  0  0  0  0  0  0  0  0
    1.2196    3.9475    0.0000 N   0  0  0  0  0  0  0  0  0  8  0  0
   -1.8596    1.2135    0.0000 C   0  0  0  0  0  0  0  0  0 30  0  0
    0.1600    3.0969    0.0000 O   0  0  0  0  0  0  0  0  0  5  0  0
   -0.4330    0.7500    0.0000 C   0  0  0  0  0  0  0  0  0 28  0  0
   -2.7413    0.0000    0.0000 N   0  0  0  0  0  0  0  0  0 12  0  0
   -3.1586    1.9635    0.0000 H   0  0  0  0  0  0  0  0  0  0  0  0
   -0.4330   -0.7500    0.0000 C   0  0  0  0  0  0  0  0  0 32  0  0
    0.8660    0.0000    0.0000 C   0  0  0  0  0  0  0  0  0 35  0  0
    0.1771    2.1203    0.0000 H   0  0  0  0  0  0  0  0  0  0  0  0
   -4.2413    0.0000    0.0000 C   0  0  0  0  0  0  0  0  0 25  0  0
   -1.8596   -1.2135    0.0000 C   0  0  0  0  0  0  0  0  0 22  0  0
    0.0055   -2.1845    0.0000 H   0  0  0  0  0  0  0  0  0  0  0  0
    1.8302    1.1491    0.0000 C   0  0  0  0  0  0  0  0  0 16  0  0
    1.8302   -1.1491    0.0000 C   0  0  0  0  0  0  0  0  0 17  0  0
   -4.9913    1.2990    0.0000 C   0  0  0  0  0  0  0  0  0 31  0  0
   -4.9913   -1.2990    0.0000 O   0  0  0  0  0  0  0  0  0  6  0  0
   -3.1586   -1.9635    0.0000 H   0  0  0  0  0  0  0  0  0  0  0  0
   -1.2495   -2.5838    0.0000 H   0  0  0  0  0  0  0  0  0  0  0  0
    2.7944    2.2981    0.0000 H   0  0  0  0  0  0  0  0  0  0  0  0
    3.0882    0.3321    0.0000 H   0  0  0  0  0  0  0  0  0  0  0  0
    0.9486    2.3626    0.0000 H   0  0  0  0  0  0  0  0  0  0  0  0
    2.7944   -2.2981    0.0000 H   0  0  0  0  0  0  0  0  0  0  0  0
    3.0882   -0.3321    0.0000 H   0  0  0  0  0  0  0  0  0  0  0  0
    0.8072   -2.2461    0.0000 H   0  0  0  0  0  0  0  0  0  0  0  0
   -6.2903    0.5490    0.0000 N   0  0  0  0  0  0  0  0  0 11  0  0
   -5.7413    2.5981    0.0000 C   0  0  0  0  0  0  0  0  0 34  0  0
   -3.6922    2.0490    0.0000 H   0  0  0  0  0  0  0  0  0  0  0  0
   -7.5894    1.2990    0.0000 C   0  0  0  0  0  0  0  0  0 26  0  0
   -6.2903   -0.9510    0.0000 H   0  0  0  0  0  0  0  0  0  0  0  0
   -6.4913    3.8971    0.0000 C   0  0  0  0  0  0  0  0  0 13  0  0
   -7.0403    1.8481    0.0000 C   0  0  0  0  0  0  0  0  0 14  0  0
   -4.4422    3.3481    0.0000 C   0  0  0  0  0  0  0  0  0 15  0  0
   -8.8884    0.5490    0.0000 C   0  0  0  0  0  0  0  0  0 33  0  0
   -7.7722    2.7879    0.0000 O   0  0  0  0  0  0  0  0  0  7  0  0
   -7.3940    5.0950    0.0000 H   0  0  0  0  0  0  0  0  0  0  0  0
   -5.1105    4.4832    0.0000 H   0  0  0  0  0  0  0  0  0  0  0  0
   -5.2933    4.7999    0.0000 H   0  0  0  0  0  0  0  0  0  0  0  0
   -8.5394    1.7959    0.0000 H   0  0  0  0  0  0  0  0  0  0  0  0
   -7.6264    3.2288    0.0000 H   0  0  0  0  0  0  0  0  0  0  0  0
   -6.6269    0.4062    0.0000 H   0  0  0  0  0  0  0  0  0  0  0  0
   -3.1432    4.0981    0.0000 H   0  0  0  0  0  0  0  0  0  0  0  0
   -5.0283    4.7288    0.0000 H   0  0  0  0  0  0  0  0  0  0  0  0
   -3.6922    2.0490    0.0000 H   0  0  0  0  0  0  0  0  0  0  0  0
  -10.1874   -0.2010    0.0000 F   0  0  0  0  0  0  0  0  0  1  0  0
   -9.6384    1.8481    0.0000 F   0  0  0  0  0  0  0  0  0  2  0  0
   -8.1384   -0.7500    0.0000 F   0  0  0  0  0  0  0  0  0  3  0  0
   -7.1848    8.9415    0.0000 H   0  0  0  0  0  0  0  0  0  0  0  0
  1  2  1  0
  2  3  2  0
  2  4  1  0
  5  1  1  0
  1  6  1  0
  1  7  1  0
  8  5  1  0
  9  5  1  0
  5 10  1  6
 11  8  1  0
  8 12  1  0
  8 13  1  0
  4  9  1  0
  9 14  2  0
 15 11  1  0
 11 16  1  0
 11 17  1  6
 18 15  1  0
 15 19  1  0
 16 20  3  0
 21 18  1  0
 18 22  2  0
 23 21  1  0
 21 24  1  0
 21 25  1  1
 26 23  1  0
 23 27  1  0
 23 28  1  6
 29 24  1  0
 24 30  1  0
 30 26  1  0
 27 26  1  0
 26 31  1  6
 27 32  1  0
 27 33  1  0
 34 29  1  0
 29 35  2  0
 30 36  1  0
 30 37  1  0
 32 38  1  0
 32 39  1  0
 32 40  1  0
 33 41  1  0
 33 42  1  0
 33 43  1  0
 44 34  1  0
 34 45  1  0
 34 46  1  6
 47 44  1  0
 44 48  1  0
 45 49  1  0
 45 50  1  0
 45 51  1  0
 52 47  1  0
 47 53  2  0
 49 54  1  0
 49 55  1  0
 49 56  1  0
 50 57  1  0
 50 58  1  0
 50 59  1  0
 51 60  1  0
 51 61  1  0
 51 62  1  0
 63 52  1  0
 52 64  1  0
 52 65  1  0
  4 66  1  0
M  END
>  <SMILES>  (3) 
CC(C)(C)C(NC(=O)C(F)(F)F)C(=O)N1CC2C(C1C(=O)NC(C#N)CC1CC(=O)NC1=O)C2(C)C

>  <Molecular Weight>  (3) 
513.5

>  <Substrate_ID>  (3) 
MOL0015

>  <Substrate>  (3) 


>  <Substrate_SMILES>  (3) 
CC(C)(C)C(NC(=O)C(F)(F)F)C(=O)N1CC2C(C1C(=O)NC(C#N)CC1CCNC1=O)C2(C)C

>  <Reaction>  (3) 
oxidation_(amine_in_a_ring)

>  <Score>  (3) 
0.396

>  <Reaction_Score>  (3) 
0.3762

>  <Bond_Score>  (3) 
0.4168

>  <Rank>  (3) 
2

>  <Subtype>  (3) 
2C8, 3A4

>  <Subtype_Scores>  (3) 
[2C8] SOM_score: 0.1474, Reaction_score: 0.3762, Score: 0.2354
[3A4] SOM_score: 0.4168, Reaction_score: 0.3762, Score: 0.3960


$$$$
