
     RDKit          2D

 43 45  0  0  0  0  0  0  0  0999 V2000
    3.7500    1.2990    0.0000 S   0  0  0  0  0  6  0  0  0  3  0  0
    4.5000    2.5981    0.0000 N   0  0  0  0  0  0  0  0  0 12  0  0
    3.0000    0.0000    0.0000 N   0  0  0  0  0  0  0  0  0 13  0  0
    2.4510    2.0490    0.0000 O   0  0  0  0  0  0  0  0  0  4  0  0
    5.0490    0.5490    0.0000 O   0  0  0  0  0  0  0  0  0  5  0  0
    1.5000    0.0000    0.0000 C   0  0  0  0  0  0  0  0  0 30  0  0
    3.5923   -0.7860    0.0000 H   0  0  0  0  0  0  0  0  0  0  0  0
    0.7500   -1.2990    0.0000 C   0  0  0  0  0  0  0  0  0 32  0  0
    0.7500    1.2990    0.0000 N   0  0  0  0  0  0  0  0  0 10  0  0
    1.5000   -2.5981    0.0000 C   0  0  0  0  0  0  0  0  0 28  0  0
   -0.7500   -1.2990    0.0000 C   0  0  0  0  0  0  0  0  0 31  0  0
   -0.7500    1.2990    0.0000 C   0  0  0  0  0  0  0  0  0 15  0  0
    0.7500   -3.8971    0.0000 C   0  0  0  0  0  0  0  0  0 20  0  0
    3.0000   -2.5981    0.0000 C   0  0  0  0  0  0  0  0  0 21  0  0
   -1.5000    0.0000    0.0000 N   0  0  0  0  0  0  0  0  0 11  0  0
   -1.5000   -2.5981    0.0000 O   0  0  0  0  0  0  0  0  0  7  0  0
   -1.5000    2.5981    0.0000 H   0  0  0  0  0  0  0  0  0  0  0  0
    1.5000   -5.1962    0.0000 C   0  0  0  0  0  0  0  0  0 16  0  0
   -0.7500   -3.8971    0.0000 H   0  0  0  0  0  0  0  0  0  0  0  0
    3.7500   -3.8971    0.0000 C   0  0  0  0  0  0  0  0  0 17  0  0
    3.5923   -1.8121    0.0000 H   0  0  0  0  0  0  0  0  0  0  0  0
   -3.0000   -2.5981    0.0000 C   0  0  0  0  0  0  0  0  0 25  0  0
    3.0000   -5.1962    0.0000 C   0  0  0  0  0  0  0  0  0 26  0  0
    0.7500   -6.4952    0.0000 H   0  0  0  0  0  0  0  0  0  0  0  0
    5.2500   -3.8971    0.0000 H   0  0  0  0  0  0  0  0  0  0  0  0
   -4.5000   -2.5981    0.0000 C   0  0  0  0  0  0  0  0  0 24  0  0
   -3.0000   -1.0981    0.0000 H   0  0  0  0  0  0  0  0  0  0  0  0
   -3.0000   -4.0981    0.0000 H   0  0  0  0  0  0  0  0  0  0  0  0
    3.7500   -6.4952    0.0000 Br  0  0  0  0  0  0  0  0  0  1  0  0
   -6.0000   -2.5981    0.0000 O   0  0  0  0  0  0  0  0  0  6  0  0
   -4.5000   -1.0981    0.0000 H   0  0  0  0  0  0  0  0  0  0  0  0
   -4.5000   -4.0981    0.0000 H   0  0  0  0  0  0  0  0  0  0  0  0
   -6.7500   -3.8971    0.0000 C   0  0  0  0  0  0  0  0  0 29  0  0
   -8.2500   -3.8971    0.0000 N   0  0  0  0  0  0  0  0  0  8  0  0
   -6.0000   -5.1962    0.0000 N   0  0  0  0  0  0  0  0  0  9  0  0
   -9.0000   -5.1962    0.0000 C   0  0  0  0  0  0  0  0  0 18  0  0
   -6.7500   -6.4952    0.0000 C   0  0  0  0  0  0  0  0  0 19  0  0
   -8.2500   -6.4952    0.0000 C   0  0  0  0  0  0  0  0  0 27  0  0
  -10.5000   -5.1962    0.0000 H   0  0  0  0  0  0  0  0  0  0  0  0
   -6.0000   -7.7942    0.0000 H   0  0  0  0  0  0  0  0  0  0  0  0
   -9.0000   -7.7942    0.0000 Br  0  0  0  0  0  0  0  0  0  2  0  0
    6.0000    2.5981    0.0000 H   0  0  0  0  0  0  0  0  0  0  0  0
    3.7500    3.8971    0.0000 H   0  0  0  0  0  0  0  0  0  0  0  0
  1  2  1  0
  3  1  1  0
  1  4  2  0
  1  5  2  0
  6  3  1  0
  3  7  1  0
  8  6  2  0
  6  9  1  0
 10  8  1  0
 11  8  1  0
  9 12  2  0
 13 10  2  0
 10 14  1  0
 15 11  2  0
 11 16  1  0
 12 15  1  0
 12 17  1  0
 18 13  1  0
 13 19  1  0
 14 20  2  0
 14 21  1  0
 16 22  1  0
 23 18  2  0
 18 24  1  0
 20 23  1  0
 20 25  1  0
 22 26  1  0
 22 27  1  0
 22 28  1  0
 29 23  1  0
 26 30  1  0
 26 31  1  0
 26 32  1  0
 30 33  1  0
 33 34  2  0
 35 33  1  0
 34 36  1  0
 37 35  2  0
 36 38  2  0
 36 39  1  0
 38 37  1  0
 37 40  1  0
 38 41  1  0
  2 42  1  0
  2 43  1  0
M  END
>  <SMILES>  (1) 
NS(=O)(=O)Nc1ncnc(OCCOc2ncc(Br)cn2)c1-c1ccc(Br)cc1

>  <Molecular Weight>  (1) 
546.2

>  <Substrate_ID>  (1) 
MOL0049

>  <Substrate>  (1) 


>  <Substrate_SMILES>  (1) 
CCCNS(=O)(=O)Nc1ncnc(OCCOc2ncc(Br)cn2)c1-c1ccc(Br)cc1

>  <Reaction>  (1) 
N-dealkylation_(R-NHCH2-alkyl)

>  <Score>  (1) 
0.2381

>  <Reaction_Score>  (1) 
0.2276

>  <Bond_Score>  (1) 
0.2491

>  <Rank>  (1) 
1

>  <Subtype>  (1) 
3A4

>  <Subtype_Scores>  (1) 
[3A4] SOM_score: 0.2491, Reaction_score: 0.2276, Score: 0.2381


$$$$
