
     RDKit          2D

 61 65  0  0  0  0  0  0  0  0999 V2000
    3.3037   -4.2221    0.0000 C   0  0  0  0  0  0  0  0  0 27  0  0
    4.6740   -4.8322    0.0000 C   0  0  0  0  0  0  0  0  0  9  0  0
    6.0443   -5.4423    0.0000 O   0  0  0  0  0  0  0  0  0 31  0  0
    2.9918   -2.7549    0.0000 N   0  0  0  0  0  0  0  0  0  3  0  0
    2.0046   -4.9721    0.0000 C   0  0  0  0  0  0  0  0  0 15  0  0
    1.5000   -2.5981    0.0000 N   0  0  0  0  0  0  0  0  0  8  0  0
    0.8899   -3.9684    0.0000 C   0  0  0  0  0  0  0  0  0 28  0  0
    1.8478   -6.4639    0.0000 H   0  0  0  0  0  0  0  0  0  0  0  0
    0.7500   -1.2990    0.0000 C   0  0  0  0  0  0  0  0  0 26  0  0
   -0.5773   -4.2803    0.0000 N   0  0  0  0  0  0  0  0  0  6  0  0
    1.5000   -0.0000    0.0000 C   0  0  0  0  0  0  0  0  0 13  0  0
   -0.7500   -1.2990    0.0000 C   0  0  0  0  0  0  0  0  0 14  0  0
   -1.5810   -3.1655    0.0000 C   0  0  0  0  0  0  0  0  0 21  0  0
   -1.0409   -5.7068    0.0000 C   0  0  0  0  0  0  0  0  0 22  0  0
    0.7500    1.2990    0.0000 C   0  0  0  0  0  0  0  0  0 11  0  0
    3.0000   -0.0000    0.0000 H   0  0  0  0  0  0  0  0  0  0  0  0
   -1.5000   -0.0000    0.0000 C   0  0  0  0  0  0  0  0  0 12  0  0
   -1.3038   -1.8724    0.0000 H   0  0  0  0  0  0  0  0  0  0  0  0
   -3.0482   -3.4774    0.0000 C   0  0  0  0  0  0  0  0  0 23  0  0
   -1.8796   -2.4264    0.0000 H   0  0  0  0  0  0  0  0  0  0  0  0
   -0.3090   -2.3707    0.0000 H   0  0  0  0  0  0  0  0  0  0  0  0
   -2.5081   -6.0187    0.0000 C   0  0  0  0  0  0  0  0  0 24  0  0
    0.4446   -5.9156    0.0000 H   0  0  0  0  0  0  0  0  0  0  0  0
   -0.9885   -7.2059    0.0000 H   0  0  0  0  0  0  0  0  0  0  0  0
   -0.7500    1.2990    0.0000 C   0  0  0  0  0  0  0  0  0 10  0  0
    1.5000    2.5981    0.0000 H   0  0  0  0  0  0  0  0  0  0  0  0
   -3.0000    0.0000    0.0000 H   0  0  0  0  0  0  0  0  0  0  0  0
   -3.5118   -4.9040    0.0000 N   0  0  0  0  0  0  0  0  0  7  0  0
   -4.4971   -3.0891    0.0000 H   0  0  0  0  0  0  0  0  0  0  0  0
   -3.1006   -1.9783    0.0000 H   0  0  0  0  0  0  0  0  0  0  0  0
   -1.9462   -7.4095    0.0000 H   0  0  0  0  0  0  0  0  0  0  0  0
   -3.5500   -7.0978    0.0000 H   0  0  0  0  0  0  0  0  0  0  0  0
   -1.5000    2.5981    0.0000 H   0  0  0  0  0  0  0  0  0  0  0  0
   -4.9790   -5.2159    0.0000 C   0  0  0  0  0  0  0  0  0 29  0  0
   -6.4790   -5.2159    0.0000 C   0  0  0  0  0  0  0  0  0 17  0  0
   -4.5155   -6.6424    0.0000 C   0  0  0  0  0  0  0  0  0 18  0  0
   -5.3165   -3.7543    0.0000 H   0  0  0  0  0  0  0  0  0  0  0  0
   -6.9425   -6.6424    0.0000 N   0  0  0  0  0  0  0  0  0  4  0  0
   -6.3222   -3.7241    0.0000 H   0  0  0  0  0  0  0  0  0  0  0  0
   -7.9462   -4.9040    0.0000 H   0  0  0  0  0  0  0  0  0  0  0  0
   -5.7290   -7.5241    0.0000 C   0  0  0  0  0  0  0  0  0 30  0  0
   -3.7655   -7.9415    0.0000 H   0  0  0  0  0  0  0  0  0  0  0  0
   -3.0382   -6.3821    0.0000 H   0  0  0  0  0  0  0  0  0  0  0  0
   -8.3691   -7.1060    0.0000 H   0  0  0  0  0  0  0  0  0  0  0  0
   -6.7327   -8.6388    0.0000 C   0  0  0  0  0  0  0  0  0 25  0  0
   -4.5969   -8.5082    0.0000 H   0  0  0  0  0  0  0  0  0  0  0  0
   -6.2692  -10.0654    0.0000 N   0  0  0  0  0  0  0  0  0  5  0  0
   -8.1999   -8.3270    0.0000 O   0  0  0  0  0  0  0  0  0  2  0  0
   -4.8426  -10.5290    0.0000 C   0  0  0  0  0  0  0  0  0 19  0  0
   -7.1508  -11.2790    0.0000 C   0  0  0  0  0  0  0  0  0 20  0  0
   -4.8426  -12.0290    0.0000 C   0  0  0  0  0  0  0  0  0 16  0  0
   -4.3542   -9.1107    0.0000 H   0  0  0  0  0  0  0  0  0  0  0  0
   -3.3508  -10.6857    0.0000 H   0  0  0  0  0  0  0  0  0  0  0  0
   -6.2692  -12.4925    0.0000 S   0  0  0  0  0  0  0  0  0  1  0  0
   -8.2656  -12.2827    0.0000 H   0  0  0  0  0  0  0  0  0  0  0  0
   -8.2656  -10.2753    0.0000 H   0  0  0  0  0  0  0  0  0  0  0  0
   -3.3508  -11.8722    0.0000 H   0  0  0  0  0  0  0  0  0  0  0  0
   -4.5307  -13.4962    0.0000 H   0  0  0  0  0  0  0  0  0  0  0  0
    4.0639   -6.2025    0.0000 H   0  0  0  0  0  0  0  0  0  0  0  0
    5.2841   -3.4619    0.0000 H   0  0  0  0  0  0  0  0  0  0  0  0
    7.2578   -4.5606    0.0000 H   0  0  0  0  0  0  0  0  0  0  0  0
  1  2  1  0
  2  3  1  0
  4  1  2  0
  1  5  1  0
  6  4  1  0
  5  7  2  0
  5  8  1  0
  7  6  1  0
  6  9  1  0
 10  7  1  0
  9 11  2  0
 12  9  1  0
 13 10  1  0
 10 14  1  0
 11 15  1  0
 11 16  1  0
 17 12  2  0
 12 18  1  0
 19 13  1  0
 13 20  1  0
 13 21  1  0
 14 22  1  0
 14 23  1  0
 14 24  1  0
 15 25  2  0
 15 26  1  0
 25 17  1  0
 17 27  1  0
 28 19  1  0
 19 29  1  0
 19 30  1  0
 22 28  1  0
 22 31  1  0
 22 32  1  0
 25 33  1  0
 34 28  1  0
 35 34  1  0
 34 36  1  0
 34 37  1  6
 38 35  1  0
 35 39  1  0
 35 40  1  0
 36 41  1  0
 36 42  1  0
 36 43  1  0
 41 38  1  0
 38 44  1  0
 45 41  1  0
 41 46  1  6
 47 45  1  0
 45 48  2  0
 49 47  1  0
 47 50  1  0
 51 49  1  0
 49 52  1  0
 49 53  1  0
 50 54  1  0
 50 55  1  0
 50 56  1  0
 54 51  1  0
 51 57  1  0
 51 58  1  0
  2 59  1  0
  2 60  1  0
  3 61  1  0
M  END
>  <SMILES>  (1) 
O=C(C1CC(N2CCN(c3cc(CO)nn3-c3ccccc3)CC2)CN1)N1CCSC1

>  <Molecular Weight>  (1) 
442.6

>  <Substrate_ID>  (1) 
MOL0059

>  <Substrate>  (1) 


>  <Substrate_SMILES>  (1) 
Cc1cc(N2CCN(C3CNC(C(=O)N4CCSC4)C3)CC2)n(-c2ccccc2)n1

>  <Reaction>  (1) 
benzylic_hydroxylation_(c-CH3),aliphatic hydroxylation

>  <Score>  (1) 
0.3875

>  <Reaction_Score>  (1) 
0.3838

>  <Bond_Score>  (1) 
0.3913

>  <Rank>  (1) 
1

>  <Subtype>  (1) 
3A4

>  <Subtype_Scores>  (1) 
[3A4] SOM_score: 0.3913, Reaction_score: 0.3838, Score: 0.3875


$$$$

     RDKit          2D

 61 65  0  0  0  0  0  0  0  0999 V2000
    4.2680   -9.3309    0.0000 C   0  0  0  0  0  0  0  0  0 16  0  0
    2.7762   -9.4877    0.0000 S   0  0  0  0  0  4  0  0  0  1  0  0
    2.0262  -10.7868    0.0000 O   0  0  0  0  0  0  0  0  0 31  0  0
    2.1661   -8.1174    0.0000 C   0  0  0  0  0  0  0  0  0 20  0  0
    4.5798   -7.8637    0.0000 C   0  0  0  0  0  0  0  0  0 19  0  0
    4.2680  -10.8309    0.0000 H   0  0  0  0  0  0  0  0  0  0  0  0
    5.7598   -9.4877    0.0000 H   0  0  0  0  0  0  0  0  0  0  0  0
    3.2808   -7.1137    0.0000 N   0  0  0  0  0  0  0  0  0  5  0  0
    6.0064   -8.3272    0.0000 H   0  0  0  0  0  0  0  0  0  0  0  0
    5.1899   -6.4934    0.0000 H   0  0  0  0  0  0  0  0  0  0  0  0
    3.1240   -5.6219    0.0000 C   0  0  0  0  0  0  0  0  0 25  0  0
    4.1867   -5.0329    0.0000 O   0  0  0  0  0  0  0  0  0  2  0  0
    1.7537   -5.0118    0.0000 C   0  0  0  0  0  0  0  0  0 30  0  0
    0.2865   -4.7000    0.0000 N   0  0  0  0  0  0  0  0  0  4  0  0
    2.5037   -3.7128    0.0000 C   0  0  0  0  0  0  0  0  0 18  0  0
    1.1197   -6.3713    0.0000 H   0  0  0  0  0  0  0  0  0  0  0  0
    0.1297   -3.2082    0.0000 C   0  0  0  0  0  0  0  0  0 17  0  0
   -0.8282   -5.7037    0.0000 H   0  0  0  0  0  0  0  0  0  0  0  0
    1.5000   -2.5981    0.0000 C   0  0  0  0  0  0  0  0  0 29  0  0
    3.5074   -2.5981    0.0000 H   0  0  0  0  0  0  0  0  0  0  0  0
    3.5664   -4.3018    0.0000 H   0  0  0  0  0  0  0  0  0  0  0  0
   -1.1908   -3.4889    0.0000 H   0  0  0  0  0  0  0  0  0  0  0  0
   -0.2928   -2.5322    0.0000 H   0  0  0  0  0  0  0  0  0  0  0  0
    0.7500   -1.2990    0.0000 N   0  0  0  0  0  0  0  0  0  7  0  0
    2.8119   -1.8709    0.0000 H   0  0  0  0  0  0  0  0  0  0  0  0
    1.5000    0.0000    0.0000 C   0  0  0  0  0  0  0  0  0 23  0  0
   -0.7500   -1.2990    0.0000 C   0  0  0  0  0  0  0  0  0 24  0  0
    0.7500    1.2990    0.0000 C   0  0  0  0  0  0  0  0  0 21  0  0
    2.6491    0.9642    0.0000 H   0  0  0  0  0  0  0  0  0  0  0  0
    2.7580   -0.8169    0.0000 H   0  0  0  0  0  0  0  0  0  0  0  0
   -1.5000    0.0000    0.0000 C   0  0  0  0  0  0  0  0  0 22  0  0
   -0.8118   -2.1826    0.0000 H   0  0  0  0  0  0  0  0  0  0  0  0
   -2.1595   -1.8121    0.0000 H   0  0  0  0  0  0  0  0  0  0  0  0
   -0.7500    1.2990    0.0000 N   0  0  0  0  0  0  0  0  0  6  0  0
    0.4895    2.7762    0.0000 H   0  0  0  0  0  0  0  0  0  0  0  0
    2.1595    1.8121    0.0000 H   0  0  0  0  0  0  0  0  0  0  0  0
   -2.6491   -0.9642    0.0000 H   0  0  0  0  0  0  0  0  0  0  0  0
   -2.6491    0.9642    0.0000 H   0  0  0  0  0  0  0  0  0  0  0  0
   -1.5000    2.5981    0.0000 C   0  0  0  0  0  0  0  0  0 28  0  0
   -0.8899    3.9684    0.0000 N   0  0  0  0  0  0  0  0  0  8  0  0
   -2.9918    2.7549    0.0000 C   0  0  0  0  0  0  0  0  0 15  0  0
    0.5773    4.2803    0.0000 C   0  0  0  0  0  0  0  0  0 26  0  0
   -2.0046    4.9721    0.0000 N   0  0  0  0  0  0  0  0  0  3  0  0
   -3.3037    4.2221    0.0000 C   0  0  0  0  0  0  0  0  0 27  0  0
   -3.9955    1.6402    0.0000 H   0  0  0  0  0  0  0  0  0  0  0  0
    1.5810    3.1655    0.0000 C   0  0  0  0  0  0  0  0  0 13  0  0
    1.0409    5.7068    0.0000 C   0  0  0  0  0  0  0  0  0 14  0  0
   -4.6740    4.8322    0.0000 C   0  0  0  0  0  0  0  0  0  9  0  0
    3.0482    3.4774    0.0000 C   0  0  0  0  0  0  0  0  0 11  0  0
    1.4765    1.6692    0.0000 H   0  0  0  0  0  0  0  0  0  0  0  0
    2.5081    6.0187    0.0000 C   0  0  0  0  0  0  0  0  0 12  0  0
    0.0372    6.8216    0.0000 H   0  0  0  0  0  0  0  0  0  0  0  0
   -6.0443    5.4423    0.0000 H   0  0  0  0  0  0  0  0  0  0  0  0
   -4.0639    6.2025    0.0000 H   0  0  0  0  0  0  0  0  0  0  0  0
   -5.2841    3.4619    0.0000 H   0  0  0  0  0  0  0  0  0  0  0  0
    3.5118    4.9040    0.0000 C   0  0  0  0  0  0  0  0  0 10  0  0
    4.0519    2.3627    0.0000 H   0  0  0  0  0  0  0  0  0  0  0  0
    2.9716    7.4453    0.0000 H   0  0  0  0  0  0  0  0  0  0  0  0
    4.9790    5.2159    0.0000 H   0  0  0  0  0  0  0  0  0  0  0  0
    1.1431   -7.0204    0.0000 H   0  0  0  0  0  0  0  0  0  0  0  0
    0.8671   -8.8674    0.0000 H   0  0  0  0  0  0  0  0  0  0  0  0
  1  2  1  0
  2  3  2  0
  2  4  1  0
  1  5  1  0
  1  6  1  0
  1  7  1  0
  5  8  1  0
  5  9  1  0
  5 10  1  0
  8 11  1  0
  8  4  1  0
 11 12  2  0
 11 13  1  0
 13 14  1  0
 15 13  1  0
 13 16  1  6
 14 17  1  0
 14 18  1  0
 19 15  1  0
 15 20  1  0
 15 21  1  0
 17 19  1  0
 17 22  1  0
 17 23  1  0
 19 24  1  0
 19 25  1  6
 24 26  1  0
 27 24  1  0
 26 28  1  0
 26 29  1  0
 26 30  1  0
 31 27  1  0
 27 32  1  0
 27 33  1  0
 28 34  1  0
 28 35  1  0
 28 36  1  0
 34 31  1  0
 31 37  1  0
 31 38  1  0
 34 39  1  0
 39 40  1  0
 41 39  2  0
 40 42  1  0
 40 43  1  0
 44 41  1  0
 41 45  1  0
 42 46  2  0
 47 42  1  0
 43 44  2  0
 44 48  1  0
 46 49  1  0
 46 50  1  0
 51 47  2  0
 47 52  1  0
 48 53  1  0
 48 54  1  0
 48 55  1  0
 49 56  2  0
 49 57  1  0
 56 51  1  0
 51 58  1  0
 56 59  1  0
  4 60  1  0
  4 61  1  0
M  END
>  <SMILES>  (2) 
Cc1cc(N2CCN(C3CNC(C(=O)N4CCS(=O)C4)C3)CC2)n(-c2ccccc2)n1

>  <Molecular Weight>  (2) 
442.6

>  <Substrate_ID>  (2) 
MOL0059

>  <Substrate>  (2) 


>  <Substrate_SMILES>  (2) 
Cc1cc(N2CCN(C3CNC(C(=O)N4CCSC4)C3)CC2)n(-c2ccccc2)n1

>  <Reaction>  (2) 
sulfide_oxidation_(C-S-C),S-oxidation

>  <Score>  (2) 
0.3369

>  <Reaction_Score>  (2) 
0.2022

>  <Bond_Score>  (2) 
0.5611

>  <Rank>  (2) 
2

>  <Subtype>  (2) 
2D6, 3A4

>  <Subtype_Scores>  (2) 
[2D6] SOM_score: 0.3988, Reaction_score: 0.2022, Score: 0.2840
[3A4] SOM_score: 0.5611, Reaction_score: 0.2022, Score: 0.3369


$$$$

     RDKit          2D

 36 38  0  0  0  0  0  0  0  0999 V2000
    1.5000    0.0000    0.0000 N   0  0  0  0  0  0  0  0  0  7  0  0
    3.0000    0.0000    0.0000 H   0  0  0  0  0  0  0  0  0  0  0  0
    0.7500   -1.2990    0.0000 C   0  0  0  0  0  0  0  0  0 23  0  0
    0.7500    1.2990    0.0000 C   0  0  0  0  0  0  0  0  0 24  0  0
   -0.7500   -1.2990    0.0000 C   0  0  0  0  0  0  0  0  0 21  0  0
    2.1595   -1.8121    0.0000 H   0  0  0  0  0  0  0  0  0  0  0  0
    0.4895   -2.7762    0.0000 H   0  0  0  0  0  0  0  0  0  0  0  0
   -0.7500    1.2990    0.0000 C   0  0  0  0  0  0  0  0  0 22  0  0
    0.4895    2.7762    0.0000 H   0  0  0  0  0  0  0  0  0  0  0  0
    2.1595    1.8121    0.0000 H   0  0  0  0  0  0  0  0  0  0  0  0
   -1.5000    0.0000    0.0000 N   0  0  0  0  0  0  0  0  0  6  0  0
   -0.4895   -2.7762    0.0000 H   0  0  0  0  0  0  0  0  0  0  0  0
   -2.1595   -1.8121    0.0000 H   0  0  0  0  0  0  0  0  0  0  0  0
   -2.1595    1.8121    0.0000 H   0  0  0  0  0  0  0  0  0  0  0  0
   -0.6116    2.0841    0.0000 H   0  0  0  0  0  0  0  0  0  0  0  0
   -3.0000    0.0000    0.0000 C   0  0  0  0  0  0  0  0  0 28  0  0
   -3.8817    1.2135    0.0000 N   0  0  0  0  0  0  0  0  0  8  0  0
   -3.8817   -1.2135    0.0000 C   0  0  0  0  0  0  0  0  0 15  0  0
   -3.4182    2.6401    0.0000 C   0  0  0  0  0  0  0  0  0 26  0  0
   -5.3083    0.7500    0.0000 N   0  0  0  0  0  0  0  0  0  3  0  0
   -5.3083   -0.7500    0.0000 C   0  0  0  0  0  0  0  0  0 27  0  0
   -3.4182   -2.6401    0.0000 H   0  0  0  0  0  0  0  0  0  0  0  0
   -4.4218    3.7548    0.0000 C   0  0  0  0  0  0  0  0  0 13  0  0
   -1.9509    2.9520    0.0000 C   0  0  0  0  0  0  0  0  0 14  0  0
   -6.5218   -1.6317    0.0000 C   0  0  0  0  0  0  0  0  0  9  0  0
   -3.9583    5.1814    0.0000 C   0  0  0  0  0  0  0  0  0 11  0  0
   -5.8891    3.4430    0.0000 H   0  0  0  0  0  0  0  0  0  0  0  0
   -1.4874    4.3786    0.0000 C   0  0  0  0  0  0  0  0  0 12  0  0
   -1.2900    2.5062    0.0000 H   0  0  0  0  0  0  0  0  0  0  0  0
   -7.7353   -2.5134    0.0000 H   0  0  0  0  0  0  0  0  0  0  0  0
   -7.4035   -0.4182    0.0000 H   0  0  0  0  0  0  0  0  0  0  0  0
   -5.6401   -2.8452    0.0000 H   0  0  0  0  0  0  0  0  0  0  0  0
   -2.4911    5.4933    0.0000 C   0  0  0  0  0  0  0  0  0 10  0  0
   -4.9620    6.2961    0.0000 H   0  0  0  0  0  0  0  0  0  0  0  0
   -0.0202    4.6904    0.0000 H   0  0  0  0  0  0  0  0  0  0  0  0
   -2.0276    6.9199    0.0000 H   0  0  0  0  0  0  0  0  0  0  0  0
  1  2  1  0
  1  3  1  0
  4  1  1  0
  3  5  1  0
  3  6  1  0
  3  7  1  0
  8  4  1  0
  4  9  1  0
  4 10  1  0
  5 11  1  0
  5 12  1  0
  5 13  1  0
 11  8  1  0
  8 14  1  0
  8 15  1  0
 11 16  1  0
 16 17  1  0
 18 16  2  0
 17 19  1  0
 17 20  1  0
 21 18  1  0
 18 22  1  0
 19 23  2  0
 24 19  1  0
 20 21  2  0
 21 25  1  0
 23 26  1  0
 23 27  1  0
 28 24  2  0
 24 29  1  0
 25 30  1  0
 25 31  1  0
 25 32  1  0
 26 33  2  0
 26 34  1  0
 33 28  1  0
 28 35  1  0
 33 36  1  0
M  END
>  <SMILES>  (3) 
Cc1cc(N2CCNCC2)n(-c2ccccc2)n1

>  <Molecular Weight>  (3) 
242.3

>  <Substrate_ID>  (3) 
MOL0059

>  <Substrate>  (3) 


>  <Substrate_SMILES>  (3) 
Cc1cc(N2CCN(C3CNC(C(=O)N4CCSC4)C3)CC2)n(-c2ccccc2)n1

>  <Reaction>  (3) 
N-dealkylation_(hetero_ring)

>  <Score>  (3) 
0.2487

>  <Reaction_Score>  (3) 
0.2235

>  <Bond_Score>  (3) 
0.2768

>  <Rank>  (3) 
3

>  <Subtype>  (3) 
3A4

>  <Subtype_Scores>  (3) 
[3A4] SOM_score: 0.2768, Reaction_score: 0.2235, Score: 0.2487


$$$$

     RDKit          2D

 25 26  0  0  0  0  0  0  0  0999 V2000
    1.2760    0.0000    0.0000 C   0  0  0  0  0  0  0  0  0 29  0  0
    2.7760    0.0000    0.0000 O   0  0  0  0  0  0  0  0  0 31  0  0
    0.3943    1.2135    0.0000 C   0  0  0  0  0  0  0  0  0 17  0  0
    0.3943   -1.2135    0.0000 C   0  0  0  0  0  0  0  0  0 18  0  0
   -1.0323    0.7500    0.0000 N   0  0  0  0  0  0  0  0  0  4  0  0
   -0.2158    2.5838    0.0000 H   0  0  0  0  0  0  0  0  0  0  0  0
    1.6933    1.9635    0.0000 H   0  0  0  0  0  0  0  0  0  0  0  0
   -1.0323   -0.7500    0.0000 C   0  0  0  0  0  0  0  0  0 30  0  0
    1.6933   -1.9635    0.0000 H   0  0  0  0  0  0  0  0  0  0  0  0
    0.0391   -2.3754    0.0000 H   0  0  0  0  0  0  0  0  0  0  0  0
   -2.2458    1.6317    0.0000 H   0  0  0  0  0  0  0  0  0  0  0  0
   -1.3442   -2.2172    0.0000 C   0  0  0  0  0  0  0  0  0 25  0  0
   -2.2161   -0.4767    0.0000 H   0  0  0  0  0  0  0  0  0  0  0  0
   -2.7707   -2.6807    0.0000 N   0  0  0  0  0  0  0  0  0  5  0  0
   -0.5471   -3.1342    0.0000 O   0  0  0  0  0  0  0  0  0  2  0  0
   -3.2343   -4.1073    0.0000 C   0  0  0  0  0  0  0  0  0 19  0  0
   -3.9843   -1.7991    0.0000 C   0  0  0  0  0  0  0  0  0 20  0  0
   -4.7343   -4.1073    0.0000 C   0  0  0  0  0  0  0  0  0 16  0  0
   -1.7670   -4.4192    0.0000 H   0  0  0  0  0  0  0  0  0  0  0  0
   -3.3911   -5.5991    0.0000 H   0  0  0  0  0  0  0  0  0  0  0  0
   -5.1978   -2.6807    0.0000 S   0  0  0  0  0  0  0  0  0  1  0  0
   -4.9880   -0.6844    0.0000 H   0  0  0  0  0  0  0  0  0  0  0  0
   -3.2874   -0.8038    0.0000 H   0  0  0  0  0  0  0  0  0  0  0  0
   -4.5775   -5.5991    0.0000 H   0  0  0  0  0  0  0  0  0  0  0  0
   -6.2015   -4.4192    0.0000 H   0  0  0  0  0  0  0  0  0  0  0  0
  1  2  2  0
  3  1  1  0
  1  4  1  0
  5  3  1  0
  3  6  1  0
  3  7  1  0
  4  8  1  0
  4  9  1  0
  4 10  1  0
  8  5  1  0
  5 11  1  0
 12  8  1  0
  8 13  1  6
 14 12  1  0
 12 15  2  0
 16 14  1  0
 14 17  1  0
 18 16  1  0
 16 19  1  0
 16 20  1  0
 17 21  1  0
 17 22  1  0
 17 23  1  0
 21 18  1  0
 18 24  1  0
 18 25  1  0
M  END
>  <SMILES>  (4) 
O=C1CNC(C(=O)N2CCSC2)C1

>  <Molecular Weight>  (4) 
200.3

>  <Substrate_ID>  (4) 
MOL0059

>  <Substrate>  (4) 


>  <Substrate_SMILES>  (4) 
Cc1cc(N2CCN(C3CNC(C(=O)N4CCSC4)C3)CC2)n(-c2ccccc2)n1

>  <Reaction>  (4) 
N-dealkylation_(hetero_ring)

>  <Score>  (4) 
0.2487

>  <Reaction_Score>  (4) 
0.2235

>  <Bond_Score>  (4) 
0.2768

>  <Rank>  (4) 
3

>  <Subtype>  (4) 
3A4

>  <Subtype_Scores>  (4) 
[3A4] SOM_score: 0.2768, Reaction_score: 0.2235, Score: 0.2487


$$$$
