
     RDKit          2D

 44 46  0  0  0  0  0  0  0  0999 V2000
   -4.5000  -10.3923    0.0000 O   0  0  0  0  0  0  0  0  0 34  0  0
   -3.7500   -9.0933    0.0000 C   0  0  0  0  0  0  0  0  0 22  0  0
   -3.0000   -7.7942    0.0000 C   0  0  0  0  0  0  0  0  0 11  0  0
   -5.0490   -8.3433    0.0000 H   0  0  0  0  0  0  0  0  0  0  0  0
   -2.4510   -9.8433    0.0000 H   0  0  0  0  0  0  0  0  0  0  0  0
   -3.7500   -6.4952    0.0000 C   0  0  0  0  0  0  0  0  0 12  0  0
   -1.5000   -7.7942    0.0000 H   0  0  0  0  0  0  0  0  0  0  0  0
   -3.0000   -5.1962    0.0000 C   0  0  0  0  0  0  0  0  0 25  0  0
   -5.2500   -6.4952    0.0000 H   0  0  0  0  0  0  0  0  0  0  0  0
   -1.5000   -5.1962    0.0000 N   0  0  0  0  0  0  0  0  0  7  0  0
   -3.7500   -3.8971    0.0000 O   0  0  0  0  0  0  0  0  0  3  0  0
   -0.7500   -3.8971    0.0000 C   0  0  0  0  0  0  0  0  0 29  0  0
   -0.7500   -6.4952    0.0000 H   0  0  0  0  0  0  0  0  0  0  0  0
    0.7500   -3.8971    0.0000 C   0  0  0  0  0  0  0  0  0 30  0  0
   -1.5000   -2.5981    0.0000 C   0  0  0  0  0  0  0  0  0 18  0  0
    1.5000   -2.5981    0.0000 C   0  0  0  0  0  0  0  0  0 17  0  0
    1.5000   -5.1962    0.0000 O   0  0  0  0  0  0  0  0  0  4  0  0
   -0.7500   -1.2990    0.0000 C   0  0  0  0  0  0  0  0  0 33  0  0
   -3.0000   -2.5981    0.0000 H   0  0  0  0  0  0  0  0  0  0  0  0
    0.7500   -1.2990    0.0000 C   0  0  0  0  0  0  0  0  0 32  0  0
    3.0000   -2.5981    0.0000 H   0  0  0  0  0  0  0  0  0  0  0  0
    3.0000   -5.1962    0.0000 C   0  0  0  0  0  0  0  0  0 10  0  0
   -1.5000    0.0000    0.0000 C   0  0  0  0  0  0  0  0  0 31  0  0
    1.5000    0.0000    0.0000 N   0  0  0  0  0  0  0  0  0  6  0  0
    3.0000   -6.6962    0.0000 H   0  0  0  0  0  0  0  0  0  0  0  0
    3.0000   -3.6962    0.0000 H   0  0  0  0  0  0  0  0  0  0  0  0
    4.5000   -5.1962    0.0000 H   0  0  0  0  0  0  0  0  0  0  0  0
   -3.0000    0.0000    0.0000 N   0  0  0  0  0  0  0  0  0  8  0  0
   -0.7500    1.2990    0.0000 N   0  0  0  0  0  0  0  0  0  5  0  0
    0.7500    1.2990    0.0000 C   0  0  0  0  0  0  0  0  0 13  0  0
   -3.7500    1.2990    0.0000 C   0  0  0  0  0  0  0  0  0 26  0  0
   -3.7500   -1.2990    0.0000 H   0  0  0  0  0  0  0  0  0  0  0  0
    1.5000    2.5981    0.0000 H   0  0  0  0  0  0  0  0  0  0  0  0
   -5.2500    1.2990    0.0000 C   0  0  0  0  0  0  0  0  0 16  0  0
   -3.0000    2.5981    0.0000 C   0  0  0  0  0  0  0  0  0 14  0  0
   -6.0000    2.5981    0.0000 C   0  0  0  0  0  0  0  0  0 28  0  0
   -6.0000    0.0000    0.0000 H   0  0  0  0  0  0  0  0  0  0  0  0
   -3.7500    3.8971    0.0000 C   0  0  0  0  0  0  0  0  0 15  0  0
   -1.5000    2.5981    0.0000 H   0  0  0  0  0  0  0  0  0  0  0  0
   -7.5000    2.5981    0.0000 Cl  0  0  0  0  0  0  0  0  0  1  0  0
   -5.2500    3.8971    0.0000 C   0  0  0  0  0  0  0  0  0 27  0  0
   -3.0000    5.1962    0.0000 H   0  0  0  0  0  0  0  0  0  0  0  0
   -6.0000    5.1962    0.0000 F   0  0  0  0  0  0  0  0  0  2  0  0
   -6.0000  -10.3923    0.0000 H   0  0  0  0  0  0  0  0  0  0  0  0
  1  2  1  0
  3  2  1  0
  2  4  1  0
  2  5  1  0
  6  3  2  0
  3  7  1  0
  8  6  1  0
  6  9  1  0
 10  8  1  0
  8 11  2  0
 12 10  1  0
 10 13  1  0
 14 12  2  0
 12 15  1  0
 16 14  1  0
 14 17  1  0
 15 18  2  0
 15 19  1  0
 20 16  2  0
 16 21  1  0
 17 22  1  0
 18 23  1  0
 18 20  1  0
 24 20  1  0
 22 25  1  0
 22 26  1  0
 22 27  1  0
 28 23  1  0
 23 29  2  0
 30 24  2  0
 31 28  1  0
 28 32  1  0
 29 30  1  0
 30 33  1  0
 34 31  2  0
 31 35  1  0
 36 34  1  0
 34 37  1  0
 35 38  2  0
 35 39  1  0
 40 36  1  0
 41 36  2  0
 38 41  1  0
 38 42  1  0
 41 43  1  0
  1 44  1  0
M  END
>  <SMILES>  (1) 
COc1cc2ncnc(Nc3ccc(F)c(Cl)c3)c2cc1NC(=O)C=CCO

>  <Molecular Weight>  (1) 
402.8

>  <Substrate_ID>  (1) 
MOL0007

>  <Substrate>  (1) 


>  <Substrate_SMILES>  (1) 
COc1cc2ncnc(Nc3ccc(F)c(Cl)c3)c2cc1NC(=O)C=CCN1CCCCC1

>  <Reaction>  (1) 
N-dealkylation_(tertiaryN-CH2-alkyl)

>  <Score>  (1) 
0.6734

>  <Reaction_Score>  (1) 
0.6411

>  <Bond_Score>  (1) 
0.7073

>  <Rank>  (1) 
1

>  <Subtype>  (1) 
2C8, 2D6, 3A4

>  <Subtype_Scores>  (1) 
[2C8] SOM_score: 0.3081, Reaction_score: 0.6411, Score: 0.4444
[2D6] SOM_score: 0.2772, Reaction_score: 0.6411, Score: 0.4216
[3A4] SOM_score: 0.7073, Reaction_score: 0.6411, Score: 0.6734


$$$$

     RDKit          2D

 42 44  0  0  0  0  0  0  0  0999 V2000
   -3.7500   -9.0933    0.0000 C   0  0  0  0  0  0  0  0  0 22  0  0
   -5.2500   -9.0933    0.0000 O   0  0  0  0  0  0  0  0  0 34  0  0
   -3.0000   -7.7942    0.0000 C   0  0  0  0  0  0  0  0  0 11  0  0
   -3.0000  -10.3923    0.0000 H   0  0  0  0  0  0  0  0  0  0  0  0
   -3.7500   -6.4952    0.0000 C   0  0  0  0  0  0  0  0  0 12  0  0
   -1.5000   -7.7942    0.0000 H   0  0  0  0  0  0  0  0  0  0  0  0
   -3.0000   -5.1962    0.0000 C   0  0  0  0  0  0  0  0  0 25  0  0
   -5.2500   -6.4952    0.0000 H   0  0  0  0  0  0  0  0  0  0  0  0
   -1.5000   -5.1962    0.0000 N   0  0  0  0  0  0  0  0  0  7  0  0
   -3.7500   -3.8971    0.0000 O   0  0  0  0  0  0  0  0  0  3  0  0
   -0.7500   -3.8971    0.0000 C   0  0  0  0  0  0  0  0  0 29  0  0
   -0.7500   -6.4952    0.0000 H   0  0  0  0  0  0  0  0  0  0  0  0
    0.7500   -3.8971    0.0000 C   0  0  0  0  0  0  0  0  0 30  0  0
   -1.5000   -2.5981    0.0000 C   0  0  0  0  0  0  0  0  0 18  0  0
    1.5000   -2.5981    0.0000 C   0  0  0  0  0  0  0  0  0 17  0  0
    1.5000   -5.1962    0.0000 O   0  0  0  0  0  0  0  0  0  4  0  0
   -0.7500   -1.2990    0.0000 C   0  0  0  0  0  0  0  0  0 33  0  0
   -3.0000   -2.5981    0.0000 H   0  0  0  0  0  0  0  0  0  0  0  0
    0.7500   -1.2990    0.0000 C   0  0  0  0  0  0  0  0  0 32  0  0
    3.0000   -2.5981    0.0000 H   0  0  0  0  0  0  0  0  0  0  0  0
    3.0000   -5.1962    0.0000 C   0  0  0  0  0  0  0  0  0 10  0  0
   -1.5000    0.0000    0.0000 C   0  0  0  0  0  0  0  0  0 31  0  0
    1.5000    0.0000    0.0000 N   0  0  0  0  0  0  0  0  0  6  0  0
    3.0000   -6.6962    0.0000 H   0  0  0  0  0  0  0  0  0  0  0  0
    3.0000   -3.6962    0.0000 H   0  0  0  0  0  0  0  0  0  0  0  0
    4.5000   -5.1962    0.0000 H   0  0  0  0  0  0  0  0  0  0  0  0
   -3.0000    0.0000    0.0000 N   0  0  0  0  0  0  0  0  0  8  0  0
   -0.7500    1.2990    0.0000 N   0  0  0  0  0  0  0  0  0  5  0  0
    0.7500    1.2990    0.0000 C   0  0  0  0  0  0  0  0  0 13  0  0
   -3.7500    1.2990    0.0000 C   0  0  0  0  0  0  0  0  0 26  0  0
   -3.7500   -1.2990    0.0000 H   0  0  0  0  0  0  0  0  0  0  0  0
    1.5000    2.5981    0.0000 H   0  0  0  0  0  0  0  0  0  0  0  0
   -5.2500    1.2990    0.0000 C   0  0  0  0  0  0  0  0  0 16  0  0
   -3.0000    2.5981    0.0000 C   0  0  0  0  0  0  0  0  0 14  0  0
   -6.0000    2.5981    0.0000 C   0  0  0  0  0  0  0  0  0 28  0  0
   -6.0000    0.0000    0.0000 H   0  0  0  0  0  0  0  0  0  0  0  0
   -3.7500    3.8971    0.0000 C   0  0  0  0  0  0  0  0  0 15  0  0
   -1.5000    2.5981    0.0000 H   0  0  0  0  0  0  0  0  0  0  0  0
   -7.5000    2.5981    0.0000 Cl  0  0  0  0  0  0  0  0  0  1  0  0
   -5.2500    3.8971    0.0000 C   0  0  0  0  0  0  0  0  0 27  0  0
   -3.0000    5.1962    0.0000 H   0  0  0  0  0  0  0  0  0  0  0  0
   -6.0000    5.1962    0.0000 F   0  0  0  0  0  0  0  0  0  2  0  0
  1  2  2  0
  3  1  1  0
  1  4  1  0
  5  3  2  0
  3  6  1  0
  7  5  1  0
  5  8  1  0
  9  7  1  0
  7 10  2  0
 11  9  1  0
  9 12  1  0
 13 11  2  0
 11 14  1  0
 15 13  1  0
 13 16  1  0
 14 17  2  0
 14 18  1  0
 19 15  2  0
 15 20  1  0
 16 21  1  0
 17 22  1  0
 17 19  1  0
 23 19  1  0
 21 24  1  0
 21 25  1  0
 21 26  1  0
 27 22  1  0
 22 28  2  0
 29 23  2  0
 30 27  1  0
 27 31  1  0
 28 29  1  0
 29 32  1  0
 33 30  2  0
 30 34  1  0
 35 33  1  0
 33 36  1  0
 34 37  2  0
 34 38  1  0
 39 35  1  0
 40 35  2  0
 37 40  1  0
 37 41  1  0
 40 42  1  0
M  END
>  <SMILES>  (2) 
COc1cc2ncnc(Nc3ccc(F)c(Cl)c3)c2cc1NC(=O)C=CC=O

>  <Molecular Weight>  (2) 
400.8

>  <Substrate_ID>  (2) 
MOL0007

>  <Substrate>  (2) 


>  <Substrate_SMILES>  (2) 
COc1cc2ncnc(Nc3ccc(F)c(Cl)c3)c2cc1NC(=O)C=CCN1CCCCC1

>  <Reaction>  (2) 
N-dealkylation_(hetero_ring)

>  <Score>  (2) 
0.6734

>  <Reaction_Score>  (2) 
0.6411

>  <Bond_Score>  (2) 
0.7073

>  <Rank>  (2) 
1

>  <Subtype>  (2) 
2C8, 2D6, 3A4

>  <Subtype_Scores>  (2) 
[2C8] SOM_score: 0.3081, Reaction_score: 0.6411, Score: 0.4444
[2D6] SOM_score: 0.2772, Reaction_score: 0.6411, Score: 0.4216
[3A4] SOM_score: 0.7073, Reaction_score: 0.6411, Score: 0.6734


$$$$

     RDKit          2D

 55 58  0  0  0  0  0  0  0  0999 V2000
    0.7500   -3.8971    0.0000 C   0  0  0  0  0  0  0  0  0 30  0  0
    1.5000   -5.1962    0.0000 O   0  0  0  0  0  0  0  0  0  4  0  0
    1.5000   -2.5981    0.0000 C   0  0  0  0  0  0  0  0  0 17  0  0
   -0.7500   -3.8971    0.0000 C   0  0  0  0  0  0  0  0  0 29  0  0
    0.7500   -1.2990    0.0000 C   0  0  0  0  0  0  0  0  0 32  0  0
    3.0000   -2.5981    0.0000 H   0  0  0  0  0  0  0  0  0  0  0  0
   -1.5000   -5.1962    0.0000 N   0  0  0  0  0  0  0  0  0  7  0  0
   -1.5000   -2.5981    0.0000 C   0  0  0  0  0  0  0  0  0 18  0  0
    1.5000    0.0000    0.0000 N   0  0  0  0  0  0  0  0  0  6  0  0
   -0.7500   -1.2990    0.0000 C   0  0  0  0  0  0  0  0  0 33  0  0
   -3.0000   -5.1962    0.0000 C   0  0  0  0  0  0  0  0  0 25  0  0
   -0.7500   -6.4952    0.0000 H   0  0  0  0  0  0  0  0  0  0  0  0
   -3.0000   -2.5981    0.0000 H   0  0  0  0  0  0  0  0  0  0  0  0
    0.7500    1.2990    0.0000 C   0  0  0  0  0  0  0  0  0 13  0  0
   -1.5000    0.0000    0.0000 C   0  0  0  0  0  0  0  0  0 31  0  0
   -3.7500   -3.8971    0.0000 O   0  0  0  0  0  0  0  0  0  3  0  0
   -3.7500   -6.4952    0.0000 C   0  0  0  0  0  0  0  0  0 12  0  0
   -0.7500    1.2990    0.0000 N   0  0  0  0  0  0  0  0  0  5  0  0
    1.5000    2.5981    0.0000 H   0  0  0  0  0  0  0  0  0  0  0  0
   -3.0000    0.0000    0.0000 N   0  0  0  0  0  0  0  0  0  8  0  0
   -3.0000   -7.7942    0.0000 C   0  0  0  0  0  0  0  0  0 11  0  0
   -5.2500   -6.4952    0.0000 H   0  0  0  0  0  0  0  0  0  0  0  0
   -3.7500    1.2990    0.0000 C   0  0  0  0  0  0  0  0  0 26  0  0
   -3.7500   -1.2990    0.0000 H   0  0  0  0  0  0  0  0  0  0  0  0
   -3.7500   -9.0933    0.0000 C   0  0  0  0  0  0  0  0  0 22  0  0
   -1.5000   -7.7942    0.0000 H   0  0  0  0  0  0  0  0  0  0  0  0
   -5.2500    1.2990    0.0000 C   0  0  0  0  0  0  0  0  0 16  0  0
   -3.0000    2.5981    0.0000 C   0  0  0  0  0  0  0  0  0 14  0  0
   -4.5000  -10.3923    0.0000 N   0  0  0  0  0  0  0  0  0  9  0  0
   -4.9479   -8.1905    0.0000 H   0  0  0  0  0  0  0  0  0  0  0  0
   -2.3692   -9.6793    0.0000 H   0  0  0  0  0  0  0  0  0  0  0  0
   -6.0000    2.5981    0.0000 C   0  0  0  0  0  0  0  0  0 28  0  0
   -6.0000    0.0000    0.0000 H   0  0  0  0  0  0  0  0  0  0  0  0
   -3.7500    3.8971    0.0000 C   0  0  0  0  0  0  0  0  0 15  0  0
   -1.5000    2.5981    0.0000 H   0  0  0  0  0  0  0  0  0  0  0  0
   -3.7500  -11.6913    0.0000 C   0  0  0  0  0  0  0  0  0 23  0  0
   -6.0000  -10.3923    0.0000 C   0  0  0  0  0  0  0  0  0 24  0  0
   -7.5000    2.5981    0.0000 Cl  0  0  0  0  0  0  0  0  0  1  0  0
   -5.2500    3.8971    0.0000 C   0  0  0  0  0  0  0  0  0 27  0  0
   -3.0000    5.1962    0.0000 H   0  0  0  0  0  0  0  0  0  0  0  0
   -4.5000  -12.9904    0.0000 C   0  0  0  0  0  0  0  0  0 20  0  0
   -2.6009  -12.6555    0.0000 H   0  0  0  0  0  0  0  0  0  0  0  0
   -2.4920  -10.8744    0.0000 H   0  0  0  0  0  0  0  0  0  0  0  0
   -6.7500  -11.6913    0.0000 C   0  0  0  0  0  0  0  0  0 21  0  0
   -5.9215   -8.8944    0.0000 H   0  0  0  0  0  0  0  0  0  0  0  0
   -7.4095   -9.8793    0.0000 H   0  0  0  0  0  0  0  0  0  0  0  0
   -6.0000    5.1962    0.0000 F   0  0  0  0  0  0  0  0  0  2  0  0
   -6.0000  -12.9904    0.0000 C   0  0  0  0  0  0  0  0  0 19  0  0
   -4.7605  -14.4676    0.0000 H   0  0  0  0  0  0  0  0  0  0  0  0
   -3.0905  -13.5034    0.0000 H   0  0  0  0  0  0  0  0  0  0  0  0
   -7.8991  -10.7272    0.0000 H   0  0  0  0  0  0  0  0  0  0  0  0
   -7.8991  -12.6555    0.0000 H   0  0  0  0  0  0  0  0  0  0  0  0
   -7.4095  -13.5034    0.0000 H   0  0  0  0  0  0  0  0  0  0  0  0
   -5.7395  -14.4676    0.0000 H   0  0  0  0  0  0  0  0  0  0  0  0
    0.7500   -6.4952    0.0000 H   0  0  0  0  0  0  0  0  0  0  0  0
  1  2  1  0
  3  1  2  0
  1  4  1  0
  5  3  1  0
  3  6  1  0
  4  7  1  0
  4  8  2  0
  9  5  2  0
 10  5  1  0
  7 11  1  0
  7 12  1  0
  8 10  1  0
  8 13  1  0
 14  9  1  0
 10 15  2  0
 11 16  2  0
 11 17  1  0
 18 14  2  0
 14 19  1  0
 20 15  1  0
 15 18  1  0
 17 21  2  0
 17 22  1  0
 23 20  1  0
 20 24  1  0
 21 25  1  0
 21 26  1  0
 27 23  2  0
 23 28  1  0
 25 29  1  0
 25 30  1  0
 25 31  1  0
 32 27  1  0
 27 33  1  0
 28 34  2  0
 28 35  1  0
 29 36  1  0
 37 29  1  0
 38 32  1  0
 39 32  2  0
 34 39  1  0
 34 40  1  0
 36 41  1  0
 36 42  1  0
 36 43  1  0
 44 37  1  0
 37 45  1  0
 37 46  1  0
 39 47  1  0
 41 48  1  0
 41 49  1  0
 41 50  1  0
 48 44  1  0
 44 51  1  0
 44 52  1  0
 48 53  1  0
 48 54  1  0
  2 55  1  0
M  END
>  <SMILES>  (3) 
O=C(C=CCN1CCCCC1)Nc1cc2c(Nc3ccc(F)c(Cl)c3)ncnc2cc1O

>  <Molecular Weight>  (3) 
455.9

>  <Substrate_ID>  (3) 
MOL0007

>  <Substrate>  (3) 


>  <Substrate_SMILES>  (3) 
COc1cc2ncnc(Nc3ccc(F)c(Cl)c3)c2cc1NC(=O)C=CCN1CCCCC1

>  <Reaction>  (3) 
O-demethylation

>  <Score>  (3) 
0.562

>  <Reaction_Score>  (3) 
0.6568

>  <Bond_Score>  (3) 
0.4809

>  <Rank>  (3) 
2

>  <Subtype>  (3) 
1A2, 2C8, 2C9, 2C19, 2D6, 3A4

>  <Subtype_Scores>  (3) 
[1A2] SOM_score: 0.3529, Reaction_score: 0.6568, Score: 0.4815
[2C8] SOM_score: 0.2410, Reaction_score: 0.6568, Score: 0.3978
[2C9] SOM_score: 0.3215, Reaction_score: 0.6568, Score: 0.4595
[2C19] SOM_score: 0.3515, Reaction_score: 0.6568, Score: 0.4805
[2D6] SOM_score: 0.4740, Reaction_score: 0.6568, Score: 0.5579
[3A4] SOM_score: 0.4809, Reaction_score: 0.6568, Score: 0.5620


$$$$

     RDKit          2D

 59 62  0  0  0  0  0  0  0  0999 V2000
   -6.7500  -11.6913    0.0000 C   0  0  0  0  0  0  0  0  0 20  0  0
   -6.0000  -12.9904    0.0000 C   0  0  0  0  0  0  0  0  0 19  0  0
   -5.7395  -14.4676    0.0000 O   0  0  0  0  0  0  0  0  0 34  0  0
   -4.5000  -12.9904    0.0000 C   0  0  0  0  0  0  0  0  0 21  0  0
   -6.0000  -10.3923    0.0000 C   0  0  0  0  0  0  0  0  0 23  0  0
   -7.8991  -10.7272    0.0000 H   0  0  0  0  0  0  0  0  0  0  0  0
   -7.8991  -12.6555    0.0000 H   0  0  0  0  0  0  0  0  0  0  0  0
   -4.5000  -10.3923    0.0000 N   0  0  0  0  0  0  0  0  0  9  0  0
   -5.9215   -8.8944    0.0000 H   0  0  0  0  0  0  0  0  0  0  0  0
   -7.4095   -9.8793    0.0000 H   0  0  0  0  0  0  0  0  0  0  0  0
   -3.7500   -9.0933    0.0000 C   0  0  0  0  0  0  0  0  0 22  0  0
   -3.7500  -11.6913    0.0000 C   0  0  0  0  0  0  0  0  0 24  0  0
   -3.0000   -7.7942    0.0000 C   0  0  0  0  0  0  0  0  0 11  0  0
   -4.9479   -8.1905    0.0000 H   0  0  0  0  0  0  0  0  0  0  0  0
   -2.3692   -9.6793    0.0000 H   0  0  0  0  0  0  0  0  0  0  0  0
   -2.6009  -12.6555    0.0000 H   0  0  0  0  0  0  0  0  0  0  0  0
   -2.4920  -10.8744    0.0000 H   0  0  0  0  0  0  0  0  0  0  0  0
   -3.7500   -6.4952    0.0000 C   0  0  0  0  0  0  0  0  0 12  0  0
   -1.5000   -7.7942    0.0000 H   0  0  0  0  0  0  0  0  0  0  0  0
   -3.0000   -5.1962    0.0000 C   0  0  0  0  0  0  0  0  0 25  0  0
   -5.2500   -6.4952    0.0000 H   0  0  0  0  0  0  0  0  0  0  0  0
   -1.5000   -5.1962    0.0000 N   0  0  0  0  0  0  0  0  0  7  0  0
   -4.0420   -4.1172    0.0000 O   0  0  0  0  0  0  0  0  0  3  0  0
   -0.7500   -3.8971    0.0000 C   0  0  0  0  0  0  0  0  0 29  0  0
   -1.1155   -6.1021    0.0000 H   0  0  0  0  0  0  0  0  0  0  0  0
    0.7500   -3.8971    0.0000 C   0  0  0  0  0  0  0  0  0 30  0  0
   -1.5000   -2.5981    0.0000 C   0  0  0  0  0  0  0  0  0 18  0  0
    1.5000   -2.5981    0.0000 C   0  0  0  0  0  0  0  0  0 17  0  0
    1.5000   -5.1962    0.0000 O   0  0  0  0  0  0  0  0  0  4  0  0
   -0.7500   -1.2990    0.0000 C   0  0  0  0  0  0  0  0  0 33  0  0
   -2.2735   -2.7910    0.0000 H   0  0  0  0  0  0  0  0  0  0  0  0
    0.7500   -1.2990    0.0000 C   0  0  0  0  0  0  0  0  0 32  0  0
    3.0000   -2.5981    0.0000 H   0  0  0  0  0  0  0  0  0  0  0  0
    0.7500   -6.4952    0.0000 C   0  0  0  0  0  0  0  0  0 10  0  0
   -1.5000    0.0000    0.0000 C   0  0  0  0  0  0  0  0  0 31  0  0
    1.5000    0.0000    0.0000 N   0  0  0  0  0  0  0  0  0  6  0  0
    2.0490   -7.2452    0.0000 H   0  0  0  0  0  0  0  0  0  0  0  0
   -0.1559   -6.1107    0.0000 H   0  0  0  0  0  0  0  0  0  0  0  0
   -0.0000   -7.7942    0.0000 H   0  0  0  0  0  0  0  0  0  0  0  0
   -3.0000    0.0000    0.0000 N   0  0  0  0  0  0  0  0  0  8  0  0
   -0.7500    1.2990    0.0000 N   0  0  0  0  0  0  0  0  0  5  0  0
    0.7500    1.2990    0.0000 C   0  0  0  0  0  0  0  0  0 13  0  0
   -3.7500   -1.2990    0.0000 C   0  0  0  0  0  0  0  0  0 26  0  0
   -3.7500    1.2990    0.0000 H   0  0  0  0  0  0  0  0  0  0  0  0
    1.5000    2.5981    0.0000 H   0  0  0  0  0  0  0  0  0  0  0  0
   -5.2500   -1.2990    0.0000 C   0  0  0  0  0  0  0  0  0 16  0  0
   -3.0000   -2.5981    0.0000 C   0  0  0  0  0  0  0  0  0 14  0  0
   -6.0000   -2.5981    0.0000 C   0  0  0  0  0  0  0  0  0 28  0  0
   -6.0000   -0.0000    0.0000 H   0  0  0  0  0  0  0  0  0  0  0  0
   -3.7500   -3.8971    0.0000 C   0  0  0  0  0  0  0  0  0 15  0  0
   -1.5446   -2.9610    0.0000 H   0  0  0  0  0  0  0  0  0  0  0  0
   -7.5000   -2.5981    0.0000 Cl  0  0  0  0  0  0  0  0  0  1  0  0
   -5.2500   -3.8971    0.0000 C   0  0  0  0  0  0  0  0  0 27  0  0
   -3.3366   -5.3390    0.0000 H   0  0  0  0  0  0  0  0  0  0  0  0
   -6.0000   -5.1962    0.0000 F   0  0  0  0  0  0  0  0  0  2  0  0
   -7.4095  -13.5034    0.0000 H   0  0  0  0  0  0  0  0  0  0  0  0
   -4.5785  -14.4883    0.0000 H   0  0  0  0  0  0  0  0  0  0  0  0
   -3.0905  -13.5034    0.0000 H   0  0  0  0  0  0  0  0  0  0  0  0
   -4.4030  -15.1486    0.0000 H   0  0  0  0  0  0  0  0  0  0  0  0
  1  2  1  0
  2  3  1  0
  2  4  1  0
  5  1  1  0
  1  6  1  0
  1  7  1  0
  8  5  1  0
  5  9  1  0
  5 10  1  0
 11  8  1  0
 12  8  1  0
 13 11  1  0
 11 14  1  0
 11 15  1  0
  4 12  1  0
 12 16  1  0
 12 17  1  0
 18 13  2  0
 13 19  1  0
 20 18  1  0
 18 21  1  0
 22 20  1  0
 20 23  2  0
 24 22  1  0
 22 25  1  0
 26 24  2  0
 24 27  1  0
 28 26  1  0
 26 29  1  0
 27 30  2  0
 27 31  1  0
 32 28  2  0
 28 33  1  0
 29 34  1  0
 30 35  1  0
 30 32  1  0
 36 32  1  0
 34 37  1  0
 34 38  1  0
 34 39  1  0
 40 35  1  0
 35 41  2  0
 42 36  2  0
 43 40  1  0
 40 44  1  0
 41 42  1  0
 42 45  1  0
 46 43  2  0
 43 47  1  0
 48 46  1  0
 46 49  1  0
 47 50  2  0
 47 51  1  0
 52 48  1  0
 53 48  2  0
 50 53  1  0
 50 54  1  0
 53 55  1  0
  2 56  1  0
  4 57  1  0
  4 58  1  0
  3 59  1  0
M  END
>  <SMILES>  (4) 
COc1cc2ncnc(Nc3ccc(F)c(Cl)c3)c2cc1NC(=O)C=CCN1CCC(O)CC1

>  <Molecular Weight>  (4) 
485.9

>  <Substrate_ID>  (4) 
MOL0007

>  <Substrate>  (4) 


>  <Substrate_SMILES>  (4) 
COc1cc2ncnc(Nc3ccc(F)c(Cl)c3)c2cc1NC(=O)C=CCN1CCCCC1

>  <Reaction>  (4) 
aliphatic_hydroxylation_(sec_carbon_in_a_ringA),aliphatic hydroxylation

>  <Score>  (4) 
0.2598

>  <Reaction_Score>  (4) 
0.2456

>  <Bond_Score>  (4) 
0.2749

>  <Rank>  (4) 
3

>  <Subtype>  (4) 
3A4

>  <Subtype_Scores>  (4) 
[3A4] SOM_score: 0.2749, Reaction_score: 0.2456, Score: 0.2598


$$$$
