
  CDK     1104240432

 23 24  0  0  0  0  0  0  0  0999 V2000
    1.9484    3.3770    0.0000 C   0  0  0  0  0  0  0  0  0  0  0  0
    3.2479    2.6261    0.0000 C   0  0  0  0  0  0  0  0  0  0  0  0
    3.2484    1.1253    0.0000 C   0  0  0  0  0  0  0  0  0  0  0  0
    1.9493    0.3753    0.0000 C   0  0  0  0  0  0  0  0  0  0  0  0
    0.6498    1.1261    0.0000 C   0  0  0  0  0  0  0  0  0  0  0  0
    0.6493    2.6270    0.0000 C   0  0  0  0  0  0  0  0  0  0  0  0
   -0.6492    0.3761    0.0000 C   0  0  0  0  0  0  0  0  0  0  0  0
   -1.9483    1.1261    0.0000 C   0  0  0  0  0  0  0  0  0  0  0  0
   -3.2473    0.3761    0.0000 C   0  0  0  0  0  0  0  0  0  0  0  0
   -3.2473   -1.1239    0.0000 O   0  0  0  0  0  0  0  0  0  0  0  0
   -4.5463    1.1261    0.0000 N   0  0  0  0  0  0  0  0  0  0  0  0
   -5.8454    0.3761    0.0000 O   0  0  0  0  0  0  0  0  0  0  0  0
    4.5475    0.3755    0.0000 S   0  0  0  0  0  0  0  0  0  0  0  0
    3.5835   -0.7737    0.0000 O   0  0  0  0  0  0  0  0  0  0  0  0
    5.5119   -0.7734    0.0000 O   0  0  0  0  0  0  0  0  0  0  0  0
    5.8465    1.1257    0.0000 N   0  0  0  0  0  0  0  0  0  0  0  0
    7.1456    0.3759    0.0000 C   0  0  0  0  0  0  0  0  0  0  0  0
    8.4446    1.1259    0.0000 C   0  0  0  0  0  0  0  0  0  0  0  0
    9.7442    0.3751    0.0000 C   0  0  0  0  0  0  0  0  0  0  0  0
    9.7446   -1.1257    0.0000 C   0  0  0  0  0  0  0  0  0  0  0  0
    8.4456   -1.8757    0.0000 C   0  0  0  0  0  0  0  0  0  0  0  0
    7.1461   -1.1249    0.0000 C   0  0  0  0  0  0  0  0  0  0  0  0
   11.0438   -1.8755    0.0000 O   0  0  0  0  0  0  0  0  0  0  0  0
  1  2  2  0  0  0  0 
  2  3  1  0  0  0  0 
  3  4  2  0  0  0  0 
  4  5  1  0  0  0  0 
  5  6  2  0  0  0  0 
  1  6  1  0  0  0  0 
  5  7  1  0  0  0  0 
  7  8  2  0  0  0  0 
  8  9  1  4  0  0  0 
  9 10  2  0  0  0  0 
  9 11  1  0  0  0  0 
 11 12  1  0  0  0  0 
  3 13  1  0  0  0  0 
 13 14  2  0  0  0  0 
 13 15  2  0  0  0  0 
 13 16  1  0  0  0  0 
 16 17  1  0  0  0  0 
 17 18  2  0  0  0  0 
 18 19  1  0  0  0  0 
 19 20  2  0  0  0  0 
 20 21  1  0  0  0  0 
 21 22  2  0  0  0  0 
 17 22  1  0  0  0  0 
 20 23  1  0  0  0  0 
M  END
> <Rank>
1

> <Priority_score>
3.97

> <Reaction_type>
aromatic hydroxylation

> <Parent_ID>
1

> <Parent_InChI>
InChI=1S/C15H14N2O4S/c18-15(16-19)10-9-12-5-4-8-14(11-12)22(20,21)17-13-6-2-1-3-7-13/h1-11,17,19H,(H,16,18)/b10-9+

> <Parent_SMILES>
C1([H])=C([H])C([H])=C(C([H])=C1[H])N([H])S(=O)(=O)C2=C([H])C(=C([H])C([H])=C2[H])/C(/[H])=C(\[H])/C(=O)N([H])O[H]

$$$$
