
  CDK     1104240427

 20 21  0  0  0  0  0  0  0  0999 V2000
    1.3221    5.2499    0.0000 C   0  0  0  0  0  0  0  0  0  0  0  0
    1.3148    3.7500    0.0000 N   0  0  0  0  0  0  0  0  0  0  0  0
    0.7948    2.3430    0.0000 C   0  0  0  0  0  0  0  0  0  0  0  0
    2.6101    2.9936    0.0000 C   0  0  0  0  0  0  0  0  0  0  0  0
    2.6027    1.4936    0.0000 C   0  0  1  0  0  0  0  0  0  0  0  0
    1.3000    0.7500    0.0000 C   0  0  0  0  0  0  0  0  0  0  0  0
    1.3000   -0.7500    0.0000 C   0  0  0  0  0  0  0  0  0  0  0  0
    0.0300   -1.5000    0.0000 C   0  0  0  0  0  0  0  0  0  0  0  0
   -1.3200   -0.7500    0.0000 C   0  0  0  0  0  0  0  0  0  0  0  0
   -1.3200    0.7500    0.0000 C   0  0  0  0  0  0  0  0  0  0  0  0
    0.0300    1.5000    0.0000 C   0  0  0  0  0  0  0  0  0  0  0  0
   -2.6128   -1.5107    0.0000 O   0  0  0  0  0  0  0  0  0  0  0  0
    3.8980    0.7372    0.0000 C   0  0  0  0  0  0  0  0  0  0  0  0
    4.8566   -0.4176    0.0000 C   0  0  0  0  0  0  0  0  0  0  0  0
    6.3351   -0.1646    0.0000 C   0  0  0  0  0  0  0  0  0  0  0  0
    6.8551    1.2433    0.0000 C   0  0  0  0  0  0  0  0  0  0  0  0
    5.8965    2.3981    0.0000 C   0  0  0  0  0  0  0  0  0  0  0  0
    4.4180    2.1451    0.0000 C   0  0  0  0  0  0  0  0  0  0  0  0
    2.9280   -0.4069    0.0000 O   0  0  0  0  0  0  0  0  0  0  0  0
   -0.1611    4.0177    0.0000 O   0  0  0  0  0  0  0  0  0  0  0  0
  1  2  1  0  0  0  0 
  2  3  1  0  0  0  0 
  2  4  1  0  0  0  0 
  5  4  1  6  0  0  0 
  5  6  1  0  0  0  0 
  6  7  2  0  0  0  0 
  7  8  1  0  0  0  0 
  8  9  2  0  0  0  0 
  9 10  1  0  0  0  0 
 10 11  2  0  0  0  0 
  6 11  1  0  0  0  0 
  9 12  1  0  0  0  0 
  5 13  1  0  0  0  0 
 13 14  1  0  0  0  0 
 14 15  1  0  0  0  0 
 15 16  1  0  0  0  0 
 16 17  1  0  0  0  0 
 17 18  1  0  0  0  0 
 13 18  1  0  0  0  0 
 13 19  1  0  0  0  0 
  2 20  1  0  0  0  0 
M  CHG  1   2   1
M  CHG  1  20  -1
M  END
> <Rank>
1

> <Priority_score>
4.17

> <Reaction_type>
N-oxidation

> <Parent_ID>
1

> <Parent_InChI>
InChI=1S/C16H25NO2/c1-17(2)12-15(13-6-8-14(18)9-7-13)16(19)10-4-3-5-11-16/h6-9,15,18-19H,3-5,10-12H2,1-2H3/t15-/m0/s1

> <Parent_SMILES>
C([H])([H])([H])N(C([H])([H])[H])C([H])([H])[C@@]([H])(C1=C([H])C([H])=C(C([H])=C1[H])O[H])C2(C([H])([H])C([H])([H])C([H])([H])C([H])([H])C2([H])[H])O[H]

$$$$

  CDK     1104240427

 20 21  0  0  0  0  0  0  0  0999 V2000
    5.2081    2.9808    0.0000 C   0  0  0  0  0  0  0  0  0  0  0  0
    3.9128    3.7372    0.0000 N   0  0  0  0  0  0  0  0  0  0  0  0
    2.6101    2.9936    0.0000 C   0  0  0  0  0  0  0  0  0  0  0  0
    2.6027    1.4936    0.0000 C   0  0  1  0  0  0  0  0  0  0  0  0
    1.3000    0.7500    0.0000 C   0  0  0  0  0  0  0  0  0  0  0  0
    1.3000   -0.7500    0.0000 C   0  0  0  0  0  0  0  0  0  0  0  0
    0.0300   -1.5000    0.0000 C   0  0  0  0  0  0  0  0  0  0  0  0
   -1.3200   -0.7500    0.0000 C   0  0  0  0  0  0  0  0  0  0  0  0
   -1.3200    0.7500    0.0000 C   0  0  0  0  0  0  0  0  0  0  0  0
    0.0300    1.5000    0.0000 C   0  0  0  0  0  0  0  0  0  0  0  0
   -2.6128   -1.5107    0.0000 O   0  0  0  0  0  0  0  0  0  0  0  0
    3.8980    0.7372    0.0000 C   0  0  0  0  0  0  0  0  0  0  0  0
    4.8566   -0.4176    0.0000 C   0  0  0  0  0  0  0  0  0  0  0  0
    6.3351   -0.1646    0.0000 C   0  0  0  0  0  0  0  0  0  0  0  0
    6.8551    1.2433    0.0000 C   0  0  0  0  0  0  0  0  0  0  0  0
    5.8965    2.3981    0.0000 C   0  0  0  0  0  0  0  0  0  0  0  0
    4.4180    2.1451    0.0000 C   0  0  0  0  0  0  0  0  0  0  0  0
    2.9280   -0.4069    0.0000 O   0  0  0  0  0  0  0  0  0  0  0  0
    3.9202    5.2372    0.0000 C   0  0  0  0  0  0  0  0  0  0  0  0
    5.2229    5.9808    0.0000 O   0  0  0  0  0  0  0  0  0  0  0  0
  1  2  1  0  0  0  0 
  2  3  1  0  0  0  0 
  4  3  1  6  0  0  0 
  4  5  1  0  0  0  0 
  5  6  2  0  0  0  0 
  6  7  1  0  0  0  0 
  7  8  2  0  0  0  0 
  8  9  1  0  0  0  0 
  9 10  2  0  0  0  0 
  5 10  1  0  0  0  0 
  8 11  1  0  0  0  0 
  4 12  1  0  0  0  0 
 12 13  1  0  0  0  0 
 13 14  1  0  0  0  0 
 14 15  1  0  0  0  0 
 15 16  1  0  0  0  0 
 16 17  1  0  0  0  0 
 12 17  1  0  0  0  0 
 12 18  1  0  0  0  0 
  2 19  1  0  0  0  0 
 19 20  1  0  0  0  0 
M  END
> <Rank>
1

> <Priority_score>
4.17

> <Reaction_type>
aliphatic hydroxylation

> <Parent_ID>
1

> <Parent_InChI>
InChI=1S/C16H25NO2/c1-17(2)12-15(13-6-8-14(18)9-7-13)16(19)10-4-3-5-11-16/h6-9,15,18-19H,3-5,10-12H2,1-2H3/t15-/m0/s1

> <Parent_SMILES>
C([H])([H])([H])N(C([H])([H])[H])C([H])([H])[C@@]([H])(C1=C([H])C([H])=C(C([H])=C1[H])O[H])C2(C([H])([H])C([H])([H])C([H])([H])C([H])([H])C2([H])[H])O[H]

$$$$

  CDK     1104240427

 18 19  0  0  0  0  0  0  0  0999 V2000
   -1.7003    1.7343    0.0000 C   0  0  0  0  0  0  0  0  0  0  0  0
   -0.3976    2.4779    0.0000 N   0  0  0  0  0  0  0  0  0  0  0  0
    0.8977    1.7215    0.0000 C   0  0  0  0  0  0  0  0  0  0  0  0
    2.2004    2.4651    0.0000 C   0  0  1  0  0  0  0  0  0  0  0  0
    3.4958    1.7087    0.0000 C   0  0  0  0  0  0  0  0  0  0  0  0
    4.7948    2.4587    0.0000 C   0  0  0  0  0  0  0  0  0  0  0  0
    6.0793    1.7339    0.0000 C   0  0  0  0  0  0  0  0  0  0  0  0
    6.1048    0.1898    0.0000 C   0  0  0  0  0  0  0  0  0  0  0  0
    4.8058   -0.5602    0.0000 C   0  0  0  0  0  0  0  0  0  0  0  0
    3.4813    0.2339    0.0000 C   0  0  0  0  0  0  0  0  0  0  0  0
    7.4100   -0.5495    0.0000 O   0  0  0  0  0  0  0  0  0  0  0  0
    2.2078    3.9651    0.0000 C   0  0  0  0  0  0  0  0  0  0  0  0
    2.7287    5.3727    0.0000 C   0  0  0  0  0  0  0  0  0  0  0  0
    1.7703    6.5266    0.0000 C   0  0  0  0  0  0  0  0  0  0  0  0
    0.2910    6.2729    0.0000 C   0  0  0  0  0  0  0  0  0  0  0  0
   -0.2298    4.8653    0.0000 C   0  0  0  0  0  0  0  0  0  0  0  0
    0.7286    3.7114    0.0000 C   0  0  0  0  0  0  0  0  0  0  0  0
    3.6837    3.6970    0.0000 O   0  0  0  0  0  0  0  0  0  0  0  0
  1  2  1  0  0  0  0 
  2  3  1  0  0  0  0 
  4  3  1  6  0  0  0 
  4  5  1  0  0  0  0 
  5  6  2  0  0  0  0 
  6  7  1  0  0  0  0 
  7  8  2  0  0  0  0 
  8  9  1  0  0  0  0 
  9 10  2  0  0  0  0 
  5 10  1  0  0  0  0 
  8 11  1  0  0  0  0 
  4 12  1  0  0  0  0 
 12 13  1  0  0  0  0 
 13 14  1  0  0  0  0 
 14 15  1  0  0  0  0 
 15 16  1  0  0  0  0 
 16 17  1  0  0  0  0 
 12 17  1  0  0  0  0 
 12 18  1  0  0  0  0 
M  END
> <Rank>
1

> <Priority_score>
4.17

> <Reaction_type>
N-dealkylation

> <Parent_ID>
1

> <Parent_InChI>
InChI=1S/C16H25NO2/c1-17(2)12-15(13-6-8-14(18)9-7-13)16(19)10-4-3-5-11-16/h6-9,15,18-19H,3-5,10-12H2,1-2H3/t15-/m0/s1

> <Parent_SMILES>
C([H])([H])([H])N(C([H])([H])[H])C([H])([H])[C@@]([H])(C1=C([H])C([H])=C(C([H])=C1[H])O[H])C2(C([H])([H])C([H])([H])C([H])([H])C([H])([H])C2([H])[H])O[H]

$$$$

  CDK     1104240427

 20 21  0  0  0  0  0  0  0  0999 V2000
    5.1790    2.3965    0.0000 C   0  0  0  0  0  0  0  0  0  0  0  0
    3.8800    1.6465    0.0000 N   0  0  0  0  0  0  0  0  0  0  0  0
    3.8800    0.1465    0.0000 C   0  0  0  0  0  0  0  0  0  0  0  0
    2.5809    2.3965    0.0000 C   0  0  0  0  0  0  0  0  0  0  0  0
    1.2819    1.6465    0.0000 C   0  0  1  0  0  0  0  0  0  0  0  0
   -0.0172    2.3965    0.0000 C   0  0  0  0  0  0  0  0  0  0  0  0
   -0.0167    3.8973    0.0000 C   0  0  0  0  0  0  0  0  0  0  0  0
   -1.3157    4.6473    0.0000 C   0  0  0  0  0  0  0  0  0  0  0  0
   -2.6152    3.8965    0.0000 C   0  0  0  0  0  0  0  0  0  0  0  0
   -2.6157    2.3957    0.0000 C   0  0  0  0  0  0  0  0  0  0  0  0
   -1.3167    1.6457    0.0000 C   0  0  0  0  0  0  0  0  0  0  0  0
   -3.9149    1.6459    0.0000 O   0  0  0  0  0  0  0  0  0  0  0  0
   -3.9143    4.6465    0.0000 O   0  0  0  0  0  0  0  0  0  0  0  0
    1.2819    0.1465    0.0000 C   0  0  0  0  0  0  0  0  0  0  0  0
    0.7680   -1.2636    0.0000 C   0  0  0  0  0  0  0  0  0  0  0  0
    1.7320   -2.4128    0.0000 C   0  0  0  0  0  0  0  0  0  0  0  0
    3.2100   -2.1518    0.0000 C   0  0  0  0  0  0  0  0  0  0  0  0
    3.7239   -0.7417    0.0000 C   0  0  0  0  0  0  0  0  0  0  0  0
    2.7599    0.4074    0.0000 C   0  0  0  0  0  0  0  0  0  0  0  0
   -0.1953    0.4073    0.0000 O   0  0  0  0  0  0  0  0  0  0  0  0
  1  2  1  0  0  0  0 
  2  3  1  0  0  0  0 
  2  4  1  0  0  0  0 
  5  4  1  6  0  0  0 
  5  6  1  0  0  0  0 
  6  7  2  0  0  0  0 
  7  8  1  0  0  0  0 
  8  9  2  0  0  0  0 
  9 10  1  0  0  0  0 
 10 11  2  0  0  0  0 
  6 11  1  0  0  0  0 
 10 12  1  0  0  0  0 
  9 13  1  0  0  0  0 
  5 14  1  0  0  0  0 
 14 15  1  0  0  0  0 
 15 16  1  0  0  0  0 
 16 17  1  0  0  0  0 
 17 18  1  0  0  0  0 
 18 19  1  0  0  0  0 
 14 19  1  0  0  0  0 
 14 20  1  0  0  0  0 
M  END
> <Rank>
4

> <Priority_score>
2.9899999999999998

> <Reaction_type>
aromatic hydroxylation

> <Parent_ID>
1

> <Parent_InChI>
InChI=1S/C16H25NO2/c1-17(2)12-15(13-6-8-14(18)9-7-13)16(19)10-4-3-5-11-16/h6-9,15,18-19H,3-5,10-12H2,1-2H3/t15-/m0/s1

> <Parent_SMILES>
C([H])([H])([H])N(C([H])([H])[H])C([H])([H])[C@@]([H])(C1=C([H])C([H])=C(C([H])=C1[H])O[H])C2(C([H])([H])C([H])([H])C([H])([H])C([H])([H])C2([H])[H])O[H]

$$$$

  CDK     1104240427

 19 20  0  0  0  0  0  0  0  0999 V2000
    5.2081    2.9808    0.0000 C   0  0  0  0  0  0  0  0  0  0  0  0
    3.9128    3.7372    0.0000 N   0  0  0  0  0  0  0  0  0  0  0  0
    3.9202    5.2372    0.0000 C   0  0  0  0  0  0  0  0  0  0  0  0
    2.6101    2.9936    0.0000 C   0  0  0  0  0  0  0  0  0  0  0  0
    2.6027    1.4936    0.0000 C   0  0  1  0  0  0  0  0  0  0  0  0
    1.3000    0.7500    0.0000 C   0  0  0  0  0  0  0  0  0  0  0  0
    1.3000   -0.7500    0.0000 C   0  0  0  0  0  0  0  0  0  0  0  0
    0.0300   -1.5000    0.0000 C   0  0  0  0  0  0  0  0  0  0  0  0
   -1.3200   -0.7500    0.0000 C   0  0  0  0  0  0  0  0  0  0  0  0
   -1.3200    0.7500    0.0000 C   0  0  0  0  0  0  0  0  0  0  0  0
    0.0300    1.5000    0.0000 C   0  0  0  0  0  0  0  0  0  0  0  0
   -2.6128   -1.5107    0.0000 O   0  0  0  0  0  0  0  0  0  0  0  0
    3.8980    0.7372    0.0000 C   0  0  0  0  0  0  0  0  0  0  0  0
    4.8566   -0.4176    0.0000 C   0  0  0  0  0  0  0  0  0  0  0  0
    6.3351   -0.1646    0.0000 C   0  0  0  0  0  0  0  0  0  0  0  0
    6.8551    1.2433    0.0000 C   0  0  0  0  0  0  0  0  0  0  0  0
    5.8965    2.3981    0.0000 C   0  0  0  0  0  0  0  0  0  0  0  0
    4.4180    2.1451    0.0000 C   0  0  0  0  0  0  0  0  0  0  0  0
    2.9280   -0.4069    0.0000 O   0  0  0  0  0  0  0  0  0  0  0  0
  1  2  2  0  0  0  0 
  2  3  1  0  0  0  0 
  2  4  1  0  0  0  0 
  5  4  1  6  0  0  0 
  5  6  1  0  0  0  0 
  6  7  2  0  0  0  0 
  7  8  1  0  0  0  0 
  8  9  2  0  0  0  0 
  9 10  1  0  0  0  0 
 10 11  2  0  0  0  0 
  6 11  1  0  0  0  0 
  9 12  1  0  0  0  0 
  5 13  1  0  0  0  0 
 13 14  1  0  0  0  0 
 14 15  1  0  0  0  0 
 15 16  1  0  0  0  0 
 16 17  1  0  0  0  0 
 17 18  1  0  0  0  0 
 13 18  1  0  0  0  0 
 13 19  1  0  0  0  0 
M  CHG  1   2   1
M  END
> <Rank>
5

> <Priority_score>
0.834

> <Reaction_type>
dehydration of N-C bond

> <Parent_ID>
1

> <Parent_InChI>
InChI=1S/C16H25NO2/c1-17(2)12-15(13-6-8-14(18)9-7-13)16(19)10-4-3-5-11-16/h6-9,15,18-19H,3-5,10-12H2,1-2H3/t15-/m0/s1

> <Parent_SMILES>
C([H])([H])([H])N(C([H])([H])[H])C([H])([H])[C@@]([H])(C1=C([H])C([H])=C(C([H])=C1[H])O[H])C2(C([H])([H])C([H])([H])C([H])([H])C([H])([H])C2([H])[H])O[H]

$$$$

  CDK     1104240427

 20 21  0  0  0  0  0  0  0  0999 V2000
    4.6097   -2.1400    0.0000 C   0  0  0  0  0  0  0  0  0  0  0  0
    4.0966   -0.7305    0.0000 N   0  0  0  0  0  0  0  0  0  0  0  0
    2.6193   -0.4702    0.0000 C   0  0  0  0  0  0  0  0  0  0  0  0
    5.0606    0.4187    0.0000 C   0  0  0  0  0  0  0  0  0  0  0  0
    4.5474    1.8281    0.0000 C   0  0  2  0  0  0  0  0  0  0  0  0
    5.5115    2.9773    0.0000 C   0  0  0  0  0  0  0  0  0  0  0  0
    6.8115    3.7273    0.0000 C   0  0  0  0  0  0  0  0  0  0  0  0
    6.8115    5.2273    0.0000 C   0  0  0  0  0  0  0  0  0  0  0  0
    5.5115    5.9773    0.0000 C   0  0  0  0  0  0  0  0  0  0  0  0
    4.2115    5.2273    0.0000 C   0  0  0  0  0  0  0  0  0  0  0  0
    4.2115    3.7273    0.0000 C   0  0  0  0  0  0  0  0  0  0  0  0
    6.4755    1.8281    0.0000 O   0  0  0  0  0  0  0  0  0  0  0  0
    2.5975    2.1718    0.0000 C   0  0  0  0  0  0  0  0  0  0  0  0
    2.5975    0.6709    0.0000 C   0  0  0  0  0  0  0  0  0  0  0  0
    1.2982   -0.0803    0.0000 C   0  0  0  0  0  0  0  0  0  0  0  0
   -0.0011    0.6693    0.0000 C   0  0  0  0  0  0  0  0  0  0  0  0
   -1.3000   -0.0810    0.0000 O   0  0  0  0  0  0  0  0  0  0  0  0
   -0.0011    2.1701    0.0000 C   0  0  0  0  0  0  0  0  0  0  0  0
    1.2982    2.9213    0.0000 C   0  0  0  0  0  0  0  0  0  0  0  0
    3.1102    3.5814    0.0000 O   0  0  0  0  0  0  0  0  0  0  0  0
  1  2  1  0  0  0  0 
  2  3  1  0  0  0  0 
  2  4  1  0  0  0  0 
  5  4  1  1  0  0  0 
  5  6  1  0  0  0  0 
  6  7  1  0  0  0  0 
  7  8  1  0  0  0  0 
  8  9  1  0  0  0  0 
  9 10  1  0  0  0  0 
 10 11  1  0  0  0  0 
  6 11  1  0  0  0  0 
  6 12  1  0  0  0  0 
  5 13  1  0  0  0  0 
 13 14  1  0  0  0  0 
 14 15  2  0  0  0  0 
 15 16  1  0  0  0  0 
 16 17  2  0  0  0  0 
 16 18  1  0  0  0  0 
 18 19  2  0  0  0  0 
 13 19  1  0  0  0  0 
 13 20  1  0  0  0  0 
M  END
> <Rank>
6

> <Priority_score>
0.598

> <Reaction_type>
oxidation of 4-substituted phenol to quinone (substituent not a leaving group)

> <Parent_ID>
1

> <Parent_InChI>
InChI=1S/C16H25NO2/c1-17(2)12-15(13-6-8-14(18)9-7-13)16(19)10-4-3-5-11-16/h6-9,15,18-19H,3-5,10-12H2,1-2H3/t15-/m0/s1

> <Parent_SMILES>
C([H])([H])([H])N(C([H])([H])[H])C([H])([H])[C@@]([H])(C1=C([H])C([H])=C(C([H])=C1[H])O[H])C2(C([H])([H])C([H])([H])C([H])([H])C([H])([H])C2([H])[H])O[H]

$$$$
