
  CDK     1104240431

 22 24  0  0  0  0  0  0  0  0999 V2000
    5.1980   -1.4930    0.0000 C   0  0  0  0  0  0  0  0  0  0  0  0
    3.8981   -0.7445    0.0000 C   0  0  0  0  0  0  0  0  0  0  0  0
    2.5991   -1.4963    0.0000 C   0  0  0  0  0  0  0  0  0  0  0  0
    1.2981   -0.7480    0.0000 C   0  0  0  0  0  0  0  0  0  0  0  0
    1.2960    0.7520    0.0000 C   0  0  0  0  0  0  0  0  0  0  0  0
    2.5950    1.5037    0.0000 C   0  0  0  0  0  0  0  0  0  0  0  0
    3.8960    0.7555    0.0000 C   0  0  0  0  0  0  0  0  0  0  0  0
    5.1939    1.5075    0.0000 S   0  0  0  0  0  0  0  0  0  0  0  0
    6.4941    0.7594    0.0000 C   0  0  0  0  0  0  0  0  0  0  0  0
    7.7938    1.5100    0.0000 C   0  0  0  0  0  0  0  0  0  0  0  0
    9.0927    0.7598    0.0000 C   0  0  0  0  0  0  0  0  0  0  0  0
    9.0919   -0.7410    0.0000 C   0  0  0  0  0  0  0  0  0  0  0  0
    7.7973   -1.4830    0.0000 C   0  0  0  0  0  0  0  0  0  0  0  0
    6.4984   -0.7328    0.0000 C   0  0  0  0  0  0  0  0  0  0  0  0
    7.7938    3.0100    0.0000 N   0  0  0  0  0  0  0  0  0  0  0  0
    6.4938    3.7600    0.0000 C   0  0  0  0  0  0  0  0  0  0  0  0
    6.4938    5.2600    0.0000 C   0  0  0  0  0  0  0  0  0  0  0  0
    7.7938    6.0100    0.0000 N   0  0  0  0  0  0  0  0  0  0  0  0
    9.0938    5.2600    0.0000 C   0  0  0  0  0  0  0  0  0  0  0  0
    9.0938    3.7600    0.0000 C   0  0  0  0  0  0  0  0  0  0  0  0
    0.0002   -1.5000    0.0000 C   0  0  0  0  0  0  0  0  0  0  0  0
   -1.3000   -0.7520    0.0000 O   0  0  0  0  0  0  0  0  0  0  0  0
  1  2  1  0  0  0  0 
  2  3  2  0  0  0  0 
  3  4  1  0  0  0  0 
  4  5  2  0  0  0  0 
  5  6  1  0  0  0  0 
  6  7  2  0  0  0  0 
  2  7  1  0  0  0  0 
  7  8  1  0  0  0  0 
  8  9  1  0  0  0  0 
  9 10  2  0  0  0  0 
 10 11  1  0  0  0  0 
 11 12  2  0  0  0  0 
 12 13  1  0  0  0  0 
 13 14  2  0  0  0  0 
  9 14  1  0  0  0  0 
 10 15  1  0  0  0  0 
 15 16  1  0  0  0  0 
 16 17  1  0  0  0  0 
 17 18  1  0  0  0  0 
 18 19  1  0  0  0  0 
 19 20  1  0  0  0  0 
 15 20  1  0  0  0  0 
  4 21  1  0  0  0  0 
 21 22  1  0  0  0  0 
M  END
> <Rank>
1

> <Priority_score>
3.43

> <Reaction_type>
aliphatic hydroxylation

> <Parent_ID>
1

> <Parent_InChI>
InChI=1S/C18H22N2S/c1-14-7-8-17(15(2)13-14)21-18-6-4-3-5-16(18)20-11-9-19-10-12-20/h3-8,13,19H,9-12H2,1-2H3

> <Parent_SMILES>
C([H])([H])([H])C1=C([H])C([H])=C(C(=C1[H])C([H])([H])[H])SC2=C(C([H])=C([H])C([H])=C2[H])N3C([H])([H])C([H])([H])N([H])C([H])([H])C3([H])[H]

$$$$

  CDK     1104240431

 22 24  0  0  0  0  0  0  0  0999 V2000
   -2.2800    4.3151    0.0000 C   0  0  0  0  0  0  0  0  0  0  0  0
   -0.9798    3.5671    0.0000 C   0  0  0  0  0  0  0  0  0  0  0  0
    0.3189    4.3193    0.0000 C   0  0  0  0  0  0  0  0  0  0  0  0
    1.6202    3.5715    0.0000 C   0  0  0  0  0  0  0  0  0  0  0  0
    1.6227    2.0715    0.0000 C   0  0  0  0  0  0  0  0  0  0  0  0
    0.3239    1.3193    0.0000 C   0  0  0  0  0  0  0  0  0  0  0  0
   -0.9773    2.0671    0.0000 C   0  0  0  0  0  0  0  0  0  0  0  0
    0.3265   -0.1807    0.0000 C   0  0  0  0  0  0  0  0  0  0  0  0
    2.9229    1.3234    0.0000 S   0  0  0  0  0  0  0  0  0  0  0  0
    4.2208    2.0754    0.0000 O   0  0  0  0  0  0  0  0  0  0  0  0
    2.9251   -0.1766    0.0000 C   0  0  0  0  0  0  0  0  0  0  0  0
    4.2250   -0.9268    0.0000 C   0  0  0  0  0  0  0  0  0  0  0  0
    4.2248   -2.4268    0.0000 C   0  0  0  0  0  0  0  0  0  0  0  0
    2.9247   -3.1766    0.0000 C   0  0  0  0  0  0  0  0  0  0  0  0
    1.6348   -2.4264    0.0000 C   0  0  0  0  0  0  0  0  0  0  0  0
    1.6350   -0.9264    0.0000 C   0  0  0  0  0  0  0  0  0  0  0  0
    5.5240   -0.1768    0.0000 N   0  0  0  0  0  0  0  0  0  0  0  0
    5.5236    1.3241    0.0000 C   0  0  0  0  0  0  0  0  0  0  0  0
    6.8226    2.0741    0.0000 C   0  0  0  0  0  0  0  0  0  0  0  0
    8.1221    1.3232    0.0000 N   0  0  0  0  0  0  0  0  0  0  0  0
    8.1226   -0.1776    0.0000 C   0  0  0  0  0  0  0  0  0  0  0  0
    6.8236   -0.9276    0.0000 C   0  0  0  0  0  0  0  0  0  0  0  0
  1  2  1  0  0  0  0 
  2  3  2  0  0  0  0 
  3  4  1  0  0  0  0 
  4  5  2  0  0  0  0 
  5  6  1  0  0  0  0 
  6  7  2  0  0  0  0 
  2  7  1  0  0  0  0 
  6  8  1  0  0  0  0 
  5  9  1  0  0  0  0 
  9 10  2  0  0  0  0 
  9 11  1  0  0  0  0 
 11 12  2  0  0  0  0 
 12 13  1  0  0  0  0 
 13 14  2  0  0  0  0 
 14 15  1  0  0  0  0 
 15 16  2  0  0  0  0 
 11 16  1  0  0  0  0 
 12 17  1  0  0  0  0 
 17 18  1  0  0  0  0 
 18 19  1  0  0  0  0 
 19 20  1  0  0  0  0 
 20 21  1  0  0  0  0 
 21 22  1  0  0  0  0 
 17 22  1  0  0  0  0 
M  END
> <Rank>
2

> <Priority_score>
2.2800000000000002

> <Reaction_type>
S-oxidation

> <Parent_ID>
1

> <Parent_InChI>
InChI=1S/C18H22N2S/c1-14-7-8-17(15(2)13-14)21-18-6-4-3-5-16(18)20-11-9-19-10-12-20/h3-8,13,19H,9-12H2,1-2H3

> <Parent_SMILES>
C([H])([H])([H])C1=C([H])C([H])=C(C(=C1[H])C([H])([H])[H])SC2=C(C([H])=C([H])C([H])=C2[H])N3C([H])([H])C([H])([H])N([H])C([H])([H])C3([H])[H]

$$$$

  CDK     1104240431

 22 24  0  0  0  0  0  0  0  0999 V2000
   -1.6345    5.4331    0.0000 C   0  0  0  0  0  0  0  0  0  0  0  0
   -0.3343    4.6851    0.0000 C   0  0  0  0  0  0  0  0  0  0  0  0
    0.9644    5.4373    0.0000 C   0  0  0  0  0  0  0  0  0  0  0  0
    2.2657    4.6895    0.0000 C   0  0  0  0  0  0  0  0  0  0  0  0
    2.2682    3.1895    0.0000 C   0  0  0  0  0  0  0  0  0  0  0  0
    0.9694    2.4373    0.0000 C   0  0  0  0  0  0  0  0  0  0  0  0
   -0.3318    3.1851    0.0000 C   0  0  0  0  0  0  0  0  0  0  0  0
    0.9719    0.9373    0.0000 C   0  0  0  0  0  0  0  0  0  0  0  0
   -0.3258    0.1851    0.0000 O   0  0  0  0  0  0  0  0  0  0  0  0
    3.5683    2.4414    0.0000 S   0  0  0  0  0  0  0  0  0  0  0  0
    3.5706    0.9414    0.0000 C   0  0  0  0  0  0  0  0  0  0  0  0
    4.8705    0.1912    0.0000 C   0  0  0  0  0  0  0  0  0  0  0  0
    4.8703   -1.3088    0.0000 C   0  0  0  0  0  0  0  0  0  0  0  0
    3.5701   -2.0586    0.0000 C   0  0  0  0  0  0  0  0  0  0  0  0
    2.2803   -1.3084    0.0000 C   0  0  0  0  0  0  0  0  0  0  0  0
    2.2805    0.1916    0.0000 C   0  0  0  0  0  0  0  0  0  0  0  0
    6.1695    0.9412    0.0000 N   0  0  0  0  0  0  0  0  0  0  0  0
    6.1690    2.4421    0.0000 C   0  0  0  0  0  0  0  0  0  0  0  0
    7.4681    3.1921    0.0000 C   0  0  0  0  0  0  0  0  0  0  0  0
    8.7676    2.4412    0.0000 N   0  0  0  0  0  0  0  0  0  0  0  0
    8.7681    0.9404    0.0000 C   0  0  0  0  0  0  0  0  0  0  0  0
    7.4690    0.1904    0.0000 C   0  0  0  0  0  0  0  0  0  0  0  0
  1  2  1  0  0  0  0 
  2  3  2  0  0  0  0 
  3  4  1  0  0  0  0 
  4  5  2  0  0  0  0 
  5  6  1  0  0  0  0 
  6  7  2  0  0  0  0 
  2  7  1  0  0  0  0 
  6  8  1  0  0  0  0 
  8  9  1  0  0  0  0 
  5 10  1  0  0  0  0 
 10 11  1  0  0  0  0 
 11 12  2  0  0  0  0 
 12 13  1  0  0  0  0 
 13 14  2  0  0  0  0 
 14 15  1  0  0  0  0 
 15 16  2  0  0  0  0 
 11 16  1  0  0  0  0 
 12 17  1  0  0  0  0 
 17 18  1  0  0  0  0 
 18 19  1  0  0  0  0 
 19 20  1  0  0  0  0 
 20 21  1  0  0  0  0 
 21 22  1  0  0  0  0 
 17 22  1  0  0  0  0 
M  END
> <Rank>
3

> <Priority_score>
1.4000000000000001

> <Reaction_type>
aliphatic hydroxylation

> <Parent_ID>
1

> <Parent_InChI>
InChI=1S/C18H22N2S/c1-14-7-8-17(15(2)13-14)21-18-6-4-3-5-16(18)20-11-9-19-10-12-20/h3-8,13,19H,9-12H2,1-2H3

> <Parent_SMILES>
C([H])([H])([H])C1=C([H])C([H])=C(C(=C1[H])C([H])([H])[H])SC2=C(C([H])=C([H])C([H])=C2[H])N3C([H])([H])C([H])([H])N([H])C([H])([H])C3([H])[H]

$$$$
