
  CDK     1104240503

 36 39  0  0  0  0  0  0  0  0999 V2000
   -3.7204    4.9911    0.0000 C   0  0  0  0  0  0  0  0  0  0  0  0
   -5.1975    5.2523    0.0000 C   0  0  0  0  0  0  0  0  0  0  0  0
   -4.6838    6.6616    0.0000 C   0  0  0  0  0  0  0  0  0  0  0  0
   -6.4962    6.0029    0.0000 C   0  0  0  0  0  0  0  0  0  0  0  0
   -6.4954    7.5029    0.0000 O   0  0  0  0  0  0  0  0  0  0  0  0
   -5.1982    3.7523    0.0000 C   0  0  0  0  0  0  0  0  0  0  0  0
   -3.8989    3.0010    0.0000 C   0  0  0  0  0  0  0  0  0  0  0  0
   -3.8989    1.5002    0.0000 C   0  0  0  0  0  0  0  0  0  0  0  0
   -5.1982    0.7506    0.0000 C   0  0  0  0  0  0  0  0  0  0  0  0
   -6.4975    1.5019    0.0000 C   0  0  0  0  0  0  0  0  0  0  0  0
   -6.4975    3.0027    0.0000 C   0  0  0  0  0  0  0  0  0  0  0  0
   -7.7968    0.7523    0.0000 N   0  0  0  0  0  0  0  0  0  0  0  0
   -9.0960    1.5035    0.0000 C   0  0  0  0  0  0  0  0  0  0  0  0
  -10.3953    0.7540    0.0000 C   0  0  0  0  0  0  0  0  0  0  0  0
  -10.3953   -0.7469    0.0000 C   0  0  0  0  0  0  0  0  0  0  0  0
  -11.6946   -1.4965    0.0000 O   0  0  0  0  0  0  0  0  0  0  0  0
   -9.0960   -1.4981    0.0000 N   0  0  0  0  0  0  0  0  0  0  0  0
   -7.7968   -0.7485    0.0000 C   0  0  0  0  0  0  0  0  0  0  0  0
   -6.4978   -1.4988    0.0000 O   0  0  0  0  0  0  0  0  0  0  0  0
   -2.6000    0.7500    0.0000 C   0  0  0  0  0  0  0  0  0  0  0  0
   -1.3000    1.5000    0.0000 C   0  0  0  0  0  0  0  0  0  0  0  0
    0.0000    0.7500    0.0000 C   0  0  0  0  0  0  0  0  0  0  0  0
    1.3000    1.5000    0.0000 C   0  0  0  0  0  0  0  0  0  0  0  0
    2.6000    0.7500    0.0000 C   0  0  0  0  0  0  0  0  0  0  0  0
    2.6000   -0.7500    0.0000 C   0  0  0  0  0  0  0  0  0  0  0  0
    1.3000   -1.5000    0.0000 C   0  0  0  0  0  0  0  0  0  0  0  0
    0.0000   -0.7500    0.0000 C   0  0  0  0  0  0  0  0  0  0  0  0
   -1.3000   -1.5000    0.0000 C   0  0  0  0  0  0  0  0  0  0  0  0
   -2.6000   -0.7500    0.0000 C   0  0  0  0  0  0  0  0  0  0  0  0
    3.8989   -1.5002    0.0000 N   0  0  0  0  0  0  0  0  0  0  0  0
    5.1981   -0.7504    0.0000 S   0  0  0  0  0  0  0  0  0  0  0  0
    6.1624    0.3985    0.0000 O   0  0  0  0  0  0  0  0  0  0  0  0
    4.2341    0.3988    0.0000 O   0  0  0  0  0  0  0  0  0  0  0  0
    6.4970   -1.5006    0.0000 C   0  0  0  0  0  0  0  0  0  0  0  0
   -2.5996    3.7506    0.0000 O   0  0  0  0  0  0  0  0  0  0  0  0
   -2.5992    5.2506    0.0000 C   0  0  0  0  0  0  0  0  0  0  0  0
  1  2  1  0  0  0  0 
  2  3  1  0  0  0  0 
  2  4  1  0  0  0  0 
  4  5  1  0  0  0  0 
  2  6  1  0  0  0  0 
  6  7  2  0  0  0  0 
  7  8  1  0  0  0  0 
  8  9  2  0  0  0  0 
  9 10  1  0  0  0  0 
 10 11  2  0  0  0  0 
  6 11  1  0  0  0  0 
 10 12  1  0  0  0  0 
 12 13  1  0  0  0  0 
 13 14  2  0  0  0  0 
 14 15  1  0  0  0  0 
 15 16  2  0  0  0  0 
 15 17  1  0  0  0  0 
 17 18  1  0  0  0  0 
 12 18  1  0  0  0  0 
 18 19  2  0  0  0  0 
  8 20  1  0  0  0  0 
 20 21  2  0  0  0  0 
 21 22  1  0  0  0  0 
 22 23  2  0  0  0  0 
 23 24  1  0  0  0  0 
 24 25  2  0  0  0  0 
 25 26  1  0  0  0  0 
 26 27  2  0  0  0  0 
 22 27  1  0  0  0  0 
 27 28  1  0  0  0  0 
 28 29  2  0  0  0  0 
 20 29  1  0  0  0  0 
 25 30  1  0  0  0  0 
 30 31  1  0  0  0  0 
 31 32  2  0  0  0  0 
 31 33  2  0  0  0  0 
 31 34  1  0  0  0  0 
  7 35  1  0  0  0  0 
 35 36  1  0  0  0  0 
M  END
> <Rank>
1

> <Priority_score>
2.12

> <Reaction_type>
aliphatic hydroxylation

> <Parent_ID>
1

> <Parent_InChI>
InChI=1S/C26H27N3O5S/c1-26(2,3)22-15-20(29-11-10-23(30)27-25(29)31)14-21(24(22)34-4)18-7-6-17-13-19(28-35(5,32)33)9-8-16(17)12-18/h6-15,28H,1-5H3,(H,27,30,31)

> <Parent_SMILES>
C([H])([H])([H])C(C([H])([H])[H])(C([H])([H])[H])C1=C(C(=C([H])C(=C1[H])N2C([H])=C([H])C(=O)N([H])C2=O)C3=C([H])C4=C([H])C([H])=C(C([H])=C4C([H])=C3[H])N([H])S(=O)(=O)C([H])([H])[H])OC([H])([H])[H]

$$$$

  CDK     1104240503

 36 39  0  0  0  0  0  0  0  0999 V2000
   -6.4962    6.0029    0.0000 C   0  0  0  0  0  0  0  0  0  0  0  0
   -5.1975    5.2523    0.0000 C   0  0  0  0  0  0  0  0  0  0  0  0
   -3.7204    4.9911    0.0000 C   0  0  0  0  0  0  0  0  0  0  0  0
   -4.6838    6.6616    0.0000 C   0  0  0  0  0  0  0  0  0  0  0  0
   -5.1982    3.7523    0.0000 C   0  0  0  0  0  0  0  0  0  0  0  0
   -3.8989    3.0010    0.0000 C   0  0  0  0  0  0  0  0  0  0  0  0
   -3.8989    1.5002    0.0000 C   0  0  0  0  0  0  0  0  0  0  0  0
   -5.1982    0.7506    0.0000 C   0  0  0  0  0  0  0  0  0  0  0  0
   -6.4975    1.5019    0.0000 C   0  0  0  0  0  0  0  0  0  0  0  0
   -6.4975    3.0027    0.0000 C   0  0  0  0  0  0  0  0  0  0  0  0
   -7.7968    0.7523    0.0000 N   0  0  0  0  0  0  0  0  0  0  0  0
   -9.0960    1.5035    0.0000 C   0  0  0  0  0  0  0  0  0  0  0  0
  -10.3953    0.7540    0.0000 C   0  0  0  0  0  0  0  0  0  0  0  0
  -10.3953   -0.7469    0.0000 C   0  0  0  0  0  0  0  0  0  0  0  0
  -11.6946   -1.4965    0.0000 O   0  0  0  0  0  0  0  0  0  0  0  0
   -9.0960   -1.4981    0.0000 N   0  0  0  0  0  0  0  0  0  0  0  0
   -7.7968   -0.7485    0.0000 C   0  0  0  0  0  0  0  0  0  0  0  0
   -6.4978   -1.4988    0.0000 O   0  0  0  0  0  0  0  0  0  0  0  0
   -2.6000    0.7500    0.0000 C   0  0  0  0  0  0  0  0  0  0  0  0
   -1.3000    1.5000    0.0000 C   0  0  0  0  0  0  0  0  0  0  0  0
    0.0000    0.7500    0.0000 C   0  0  0  0  0  0  0  0  0  0  0  0
    1.3000    1.5000    0.0000 C   0  0  0  0  0  0  0  0  0  0  0  0
    2.6000    0.7500    0.0000 C   0  0  0  0  0  0  0  0  0  0  0  0
    2.6000   -0.7500    0.0000 C   0  0  0  0  0  0  0  0  0  0  0  0
    1.3000   -1.5000    0.0000 C   0  0  0  0  0  0  0  0  0  0  0  0
    0.0000   -0.7500    0.0000 C   0  0  0  0  0  0  0  0  0  0  0  0
   -1.3000   -1.5000    0.0000 C   0  0  0  0  0  0  0  0  0  0  0  0
   -2.6000   -0.7500    0.0000 C   0  0  0  0  0  0  0  0  0  0  0  0
    3.8989   -1.5002    0.0000 N   0  0  0  0  0  0  0  0  0  0  0  0
    5.1981   -0.7504    0.0000 S   0  0  0  0  0  0  0  0  0  0  0  0
    6.1624    0.3985    0.0000 O   0  0  0  0  0  0  0  0  0  0  0  0
    4.2341    0.3988    0.0000 O   0  0  0  0  0  0  0  0  0  0  0  0
    6.4970   -1.5006    0.0000 C   0  0  0  0  0  0  0  0  0  0  0  0
   -2.5996    3.7506    0.0000 O   0  0  0  0  0  0  0  0  0  0  0  0
   -2.5992    5.2506    0.0000 C   0  0  0  0  0  0  0  0  0  0  0  0
   -1.2999    6.0002    0.0000 O   0  0  0  0  0  0  0  0  0  0  0  0
  1  2  1  0  0  0  0 
  2  3  1  0  0  0  0 
  2  4  1  0  0  0  0 
  2  5  1  0  0  0  0 
  5  6  2  0  0  0  0 
  6  7  1  0  0  0  0 
  7  8  2  0  0  0  0 
  8  9  1  0  0  0  0 
  9 10  2  0  0  0  0 
  5 10  1  0  0  0  0 
  9 11  1  0  0  0  0 
 11 12  1  0  0  0  0 
 12 13  2  0  0  0  0 
 13 14  1  0  0  0  0 
 14 15  2  0  0  0  0 
 14 16  1  0  0  0  0 
 16 17  1  0  0  0  0 
 11 17  1  0  0  0  0 
 17 18  2  0  0  0  0 
  7 19  1  0  0  0  0 
 19 20  2  0  0  0  0 
 20 21  1  0  0  0  0 
 21 22  2  0  0  0  0 
 22 23  1  0  0  0  0 
 23 24  2  0  0  0  0 
 24 25  1  0  0  0  0 
 25 26  2  0  0  0  0 
 21 26  1  0  0  0  0 
 26 27  1  0  0  0  0 
 27 28  2  0  0  0  0 
 19 28  1  0  0  0  0 
 24 29  1  0  0  0  0 
 29 30  1  0  0  0  0 
 30 31  2  0  0  0  0 
 30 32  2  0  0  0  0 
 30 33  1  0  0  0  0 
  6 34  1  0  0  0  0 
 34 35  1  0  0  0  0 
 35 36  1  0  0  0  0 
M  END
> <Rank>
2

> <Priority_score>
1.1700000000000002

> <Reaction_type>
aliphatic hydroxylation

> <Parent_ID>
1

> <Parent_InChI>
InChI=1S/C26H27N3O5S/c1-26(2,3)22-15-20(29-11-10-23(30)27-25(29)31)14-21(24(22)34-4)18-7-6-17-13-19(28-35(5,32)33)9-8-16(17)12-18/h6-15,28H,1-5H3,(H,27,30,31)

> <Parent_SMILES>
C([H])([H])([H])C(C([H])([H])[H])(C([H])([H])[H])C1=C(C(=C([H])C(=C1[H])N2C([H])=C([H])C(=O)N([H])C2=O)C3=C([H])C4=C([H])C([H])=C(C([H])=C4C([H])=C3[H])N([H])S(=O)(=O)C([H])([H])[H])OC([H])([H])[H]

$$$$

  CDK     1104240503

 34 37  0  0  0  0  0  0  0  0999 V2000
   -6.4962    6.0029    0.0000 C   0  0  0  0  0  0  0  0  0  0  0  0
   -5.1975    5.2523    0.0000 C   0  0  0  0  0  0  0  0  0  0  0  0
   -3.7204    4.9911    0.0000 C   0  0  0  0  0  0  0  0  0  0  0  0
   -4.6838    6.6616    0.0000 C   0  0  0  0  0  0  0  0  0  0  0  0
   -5.1982    3.7523    0.0000 C   0  0  0  0  0  0  0  0  0  0  0  0
   -3.8989    3.0010    0.0000 C   0  0  0  0  0  0  0  0  0  0  0  0
   -3.8989    1.5002    0.0000 C   0  0  0  0  0  0  0  0  0  0  0  0
   -5.1982    0.7506    0.0000 C   0  0  0  0  0  0  0  0  0  0  0  0
   -6.4975    1.5019    0.0000 C   0  0  0  0  0  0  0  0  0  0  0  0
   -6.4975    3.0027    0.0000 C   0  0  0  0  0  0  0  0  0  0  0  0
   -7.7968    0.7523    0.0000 N   0  0  0  0  0  0  0  0  0  0  0  0
   -9.0960    1.5035    0.0000 C   0  0  0  0  0  0  0  0  0  0  0  0
  -10.3953    0.7540    0.0000 C   0  0  0  0  0  0  0  0  0  0  0  0
  -10.3953   -0.7469    0.0000 C   0  0  0  0  0  0  0  0  0  0  0  0
  -11.6946   -1.4965    0.0000 O   0  0  0  0  0  0  0  0  0  0  0  0
   -9.0960   -1.4981    0.0000 N   0  0  0  0  0  0  0  0  0  0  0  0
   -7.7968   -0.7485    0.0000 C   0  0  0  0  0  0  0  0  0  0  0  0
   -6.4978   -1.4988    0.0000 O   0  0  0  0  0  0  0  0  0  0  0  0
   -2.6000    0.7500    0.0000 C   0  0  0  0  0  0  0  0  0  0  0  0
   -1.3000    1.5000    0.0000 C   0  0  0  0  0  0  0  0  0  0  0  0
    0.0000    0.7500    0.0000 C   0  0  0  0  0  0  0  0  0  0  0  0
    1.3000    1.5000    0.0000 C   0  0  0  0  0  0  0  0  0  0  0  0
    2.6000    0.7500    0.0000 C   0  0  0  0  0  0  0  0  0  0  0  0
    2.6000   -0.7500    0.0000 C   0  0  0  0  0  0  0  0  0  0  0  0
    1.3000   -1.5000    0.0000 C   0  0  0  0  0  0  0  0  0  0  0  0
    0.0000   -0.7500    0.0000 C   0  0  0  0  0  0  0  0  0  0  0  0
   -1.3000   -1.5000    0.0000 C   0  0  0  0  0  0  0  0  0  0  0  0
   -2.6000   -0.7500    0.0000 C   0  0  0  0  0  0  0  0  0  0  0  0
    3.8989   -1.5002    0.0000 N   0  0  0  0  0  0  0  0  0  0  0  0
    5.1981   -0.7504    0.0000 S   0  0  0  0  0  0  0  0  0  0  0  0
    6.1624    0.3985    0.0000 O   0  0  0  0  0  0  0  0  0  0  0  0
    4.2341    0.3988    0.0000 O   0  0  0  0  0  0  0  0  0  0  0  0
    6.4970   -1.5006    0.0000 C   0  0  0  0  0  0  0  0  0  0  0  0
   -2.5996    3.7506    0.0000 O   0  0  0  0  0  0  0  0  0  0  0  0
  1  2  1  0  0  0  0 
  2  3  1  0  0  0  0 
  2  4  1  0  0  0  0 
  2  5  1  0  0  0  0 
  5  6  2  0  0  0  0 
  6  7  1  0  0  0  0 
  7  8  2  0  0  0  0 
  8  9  1  0  0  0  0 
  9 10  2  0  0  0  0 
  5 10  1  0  0  0  0 
  9 11  1  0  0  0  0 
 11 12  1  0  0  0  0 
 12 13  2  0  0  0  0 
 13 14  1  0  0  0  0 
 14 15  2  0  0  0  0 
 14 16  1  0  0  0  0 
 16 17  1  0  0  0  0 
 11 17  1  0  0  0  0 
 17 18  2  0  0  0  0 
  7 19  1  0  0  0  0 
 19 20  2  0  0  0  0 
 20 21  1  0  0  0  0 
 21 22  2  0  0  0  0 
 22 23  1  0  0  0  0 
 23 24  2  0  0  0  0 
 24 25  1  0  0  0  0 
 25 26  2  0  0  0  0 
 21 26  1  0  0  0  0 
 26 27  1  0  0  0  0 
 27 28  2  0  0  0  0 
 19 28  1  0  0  0  0 
 24 29  1  0  0  0  0 
 29 30  1  0  0  0  0 
 30 31  2  0  0  0  0 
 30 32  2  0  0  0  0 
 30 33  1  0  0  0  0 
  6 34  1  0  0  0  0 
M  END
> <Rank>
2

> <Priority_score>
1.1700000000000002

> <Reaction_type>
oxidative ether cleavage to one alcohol and one aldehyde/ketone

> <Parent_ID>
1

> <Parent_InChI>
InChI=1S/C26H27N3O5S/c1-26(2,3)22-15-20(29-11-10-23(30)27-25(29)31)14-21(24(22)34-4)18-7-6-17-13-19(28-35(5,32)33)9-8-16(17)12-18/h6-15,28H,1-5H3,(H,27,30,31)

> <Parent_SMILES>
C([H])([H])([H])C(C([H])([H])[H])(C([H])([H])[H])C1=C(C(=C([H])C(=C1[H])N2C([H])=C([H])C(=O)N([H])C2=O)C3=C([H])C4=C([H])C([H])=C(C([H])=C4C([H])=C3[H])N([H])S(=O)(=O)C([H])([H])[H])OC([H])([H])[H]

$$$$

  CDK     1104240503

 27 29  0  0  0  0  0  0  0  0999 V2000
   -9.0956    1.5006    0.0000 C   0  0  0  0  0  0  0  0  0  0  0  0
   -7.7968    0.7502    0.0000 C   0  0  0  0  0  0  0  0  0  0  0  0
   -8.7613   -0.3985    0.0000 C   0  0  0  0  0  0  0  0  0  0  0  0
   -6.8329   -0.3992    0.0000 C   0  0  0  0  0  0  0  0  0  0  0  0
   -6.4975    1.4998    0.0000 C   0  0  0  0  0  0  0  0  0  0  0  0
   -6.4968    3.0006    0.0000 C   0  0  0  0  0  0  0  0  0  0  0  0
   -5.1971    3.7512    0.0000 C   0  0  0  0  0  0  0  0  0  0  0  0
   -5.1971    5.2512    0.0000 O   0  0  0  0  0  0  0  0  0  0  0  0
   -3.8982    3.0010    0.0000 C   0  0  0  0  0  0  0  0  0  0  0  0
   -3.8989    1.5002    0.0000 C   0  0  0  0  0  0  0  0  0  0  0  0
   -2.6000    0.7500    0.0000 C   0  0  0  0  0  0  0  0  0  0  0  0
   -1.3000    1.5000    0.0000 C   0  0  0  0  0  0  0  0  0  0  0  0
    0.0000    0.7500    0.0000 C   0  0  0  0  0  0  0  0  0  0  0  0
    0.0000   -0.7500    0.0000 C   0  0  0  0  0  0  0  0  0  0  0  0
   -1.3000   -1.5000    0.0000 C   0  0  0  0  0  0  0  0  0  0  0  0
   -2.6000   -0.7500    0.0000 C   0  0  0  0  0  0  0  0  0  0  0  0
    1.3000   -1.5000    0.0000 C   0  0  0  0  0  0  0  0  0  0  0  0
    2.6000   -0.7500    0.0000 C   0  0  0  0  0  0  0  0  0  0  0  0
    2.6000    0.7500    0.0000 C   0  0  0  0  0  0  0  0  0  0  0  0
    1.3000    1.5000    0.0000 C   0  0  0  0  0  0  0  0  0  0  0  0
    3.8989   -1.5002    0.0000 N   0  0  0  0  0  0  0  0  0  0  0  0
    5.1981   -0.7504    0.0000 S   0  0  0  0  0  0  0  0  0  0  0  0
    6.1624    0.3985    0.0000 O   0  0  0  0  0  0  0  0  0  0  0  0
    4.2341    0.3988    0.0000 O   0  0  0  0  0  0  0  0  0  0  0  0
    6.4970   -1.5006    0.0000 C   0  0  0  0  0  0  0  0  0  0  0  0
   -5.1986    0.7496    0.0000 C   0  0  0  0  0  0  0  0  0  0  0  0
   -5.1986   -0.7504    0.0000 O   0  0  0  0  0  0  0  0  0  0  0  0
  1  2  1  0  0  0  0 
  2  3  1  0  0  0  0 
  2  4  1  0  0  0  0 
  2  5  1  0  0  0  0 
  5  6  2  0  0  0  0 
  6  7  1  0  0  0  0 
  7  8  2  0  0  0  0 
  7  9  1  0  0  0  0 
  9 10  2  0  0  0  0 
 10 11  1  0  0  0  0 
 11 12  2  0  0  0  0 
 12 13  1  0  0  0  0 
 13 14  2  0  0  0  0 
 14 15  1  0  0  0  0 
 15 16  2  0  0  0  0 
 11 16  1  0  0  0  0 
 14 17  1  0  0  0  0 
 17 18  2  0  0  0  0 
 18 19  1  0  0  0  0 
 19 20  2  0  0  0  0 
 13 20  1  0  0  0  0 
 18 21  1  0  0  0  0 
 21 22  1  0  0  0  0 
 22 23  2  0  0  0  0 
 22 24  2  0  0  0  0 
 22 25  1  0  0  0  0 
 10 26  1  0  0  0  0 
  5 26  1  0  0  0  0 
 26 27  2  0  0  0  0 
M  END
> <Rank>
4

> <Priority_score>
0.234

> <Reaction_type>
oxidation of 4-substituted anisole to quinone

> <Parent_ID>
1

> <Parent_InChI>
InChI=1S/C26H27N3O5S/c1-26(2,3)22-15-20(29-11-10-23(30)27-25(29)31)14-21(24(22)34-4)18-7-6-17-13-19(28-35(5,32)33)9-8-16(17)12-18/h6-15,28H,1-5H3,(H,27,30,31)

> <Parent_SMILES>
C([H])([H])([H])C(C([H])([H])[H])(C([H])([H])[H])C1=C(C(=C([H])C(=C1[H])N2C([H])=C([H])C(=O)N([H])C2=O)C3=C([H])C4=C([H])C([H])=C(C([H])=C4C([H])=C3[H])N([H])S(=O)(=O)C([H])([H])[H])OC([H])([H])[H]

$$$$

  CDK     1104240503

  8  8  0  0  0  0  0  0  0  0999 V2000
    0.6477    2.2439    0.0000 C   0  0  0  0  0  0  0  0  0  0  0  0
    1.9467    1.4939    0.0000 C   0  0  0  0  0  0  0  0  0  0  0  0
    1.9512    0.0017    0.0000 N   0  0  0  0  0  0  0  0  0  0  0  0
    0.6517   -0.7491    0.0000 C   0  0  0  0  0  0  0  0  0  0  0  0
    0.6520   -2.2491    0.0000 O   0  0  0  0  0  0  0  0  0  0  0  0
   -0.6473    0.0009    0.0000 N   0  0  0  0  0  0  0  0  0  0  0  0
   -0.6468    1.5017    0.0000 C   0  0  0  0  0  0  0  0  0  0  0  0
   -1.9446    2.2539    0.0000 O   0  0  0  0  0  0  0  0  0  0  0  0
  1  2  2  0  0  0  0 
  2  3  1  0  0  0  0 
  3  4  1  0  0  0  0 
  4  5  2  0  0  0  0 
  4  6  1  0  0  0  0 
  6  7  1  0  0  0  0 
  1  7  1  0  0  0  0 
  7  8  2  0  0  0  0 
M  END
> <Rank>
4

> <Priority_score>
0.234

> <Reaction_type>
oxidation of 4-substituted anisole to quinone

> <Parent_ID>
1

> <Parent_InChI>
InChI=1S/C26H27N3O5S/c1-26(2,3)22-15-20(29-11-10-23(30)27-25(29)31)14-21(24(22)34-4)18-7-6-17-13-19(28-35(5,32)33)9-8-16(17)12-18/h6-15,28H,1-5H3,(H,27,30,31)

> <Parent_SMILES>
C([H])([H])([H])C(C([H])([H])[H])(C([H])([H])[H])C1=C(C(=C([H])C(=C1[H])N2C([H])=C([H])C(=O)N([H])C2=O)C3=C([H])C4=C([H])C([H])=C(C([H])=C4C([H])=C3[H])N([H])S(=O)(=O)C([H])([H])[H])OC([H])([H])[H]

$$$$
