
  CDK     1104240437

 22 21  0  0  0  0  0  0  0  0999 V2000
    9.2102   -4.2975    0.0000 C   0  0  0  0  0  0  0  0  0  0  0  0
   10.5092   -5.0475    0.0000 C   0  0  0  0  0  0  0  0  0  0  0  0
   11.8083   -4.2975    0.0000 O   0  0  0  0  0  0  0  0  0  0  0  0
    7.9111   -5.0475    0.0000 C   0  0  0  0  0  0  0  0  0  0  0  0
    6.6121   -4.2975    0.0000 C   0  0  0  0  0  0  0  0  0  0  0  0
    6.6121   -2.7975    0.0000 C   0  0  0  0  0  0  0  0  0  0  0  0
    4.8974   -1.8075    0.0000 C   0  0  0  0  0  0  0  0  0  0  0  0
    4.8974    0.1725    0.0000 C   0  0  0  0  0  0  0  0  0  0  0  0
    3.5983    0.9225    0.0000 C   0  0  0  0  0  0  0  0  0  0  0  0
    2.2993    0.1725    0.0000 F   0  0  0  0  0  0  0  0  0  0  0  0
    2.6342    2.0716    0.0000 F   0  0  0  0  0  0  0  0  0  0  0  0
    4.5625    2.0716    0.0000 F   0  0  0  0  0  0  0  0  0  0  0  0
    6.3746   -0.0880    0.0000 F   0  0  0  0  0  0  0  0  0  0  0  0
    5.4104    1.5820    0.0000 F   0  0  0  0  0  0  0  0  0  0  0  0
    3.4202   -1.5470    0.0000 F   0  0  0  0  0  0  0  0  0  0  0  0
    4.3843   -3.2170    0.0000 F   0  0  0  0  0  0  0  0  0  0  0  0
    8.0893   -3.0580    0.0000 F   0  0  0  0  0  0  0  0  0  0  0  0
    7.1251   -1.3880    0.0000 F   0  0  0  0  0  0  0  0  0  0  0  0
    5.1349   -4.0370    0.0000 F   0  0  0  0  0  0  0  0  0  0  0  0
    6.0991   -5.7070    0.0000 F   0  0  0  0  0  0  0  0  0  0  0  0
    8.8753   -6.1966    0.0000 F   0  0  0  0  0  0  0  0  0  0  0  0
    6.9470   -6.1966    0.0000 F   0  0  0  0  0  0  0  0  0  0  0  0
  1  2  1  0  0  0  0 
  2  3  2  0  0  0  0 
  1  4  1  0  0  0  0 
  4  5  1  0  0  0  0 
  5  6  1  0  0  0  0 
  6  7  1  0  0  0  0 
  7  8  1  0  0  0  0 
  8  9  1  0  0  0  0 
  9 10  1  0  0  0  0 
  9 11  1  0  0  0  0 
  9 12  1  0  0  0  0 
  8 13  1  0  0  0  0 
  8 14  1  0  0  0  0 
  7 15  1  0  0  0  0 
  7 16  1  0  0  0  0 
  6 17  1  0  0  0  0 
  6 18  1  0  0  0  0 
  5 19  1  0  0  0  0 
  5 20  1  0  0  0  0 
  4 21  1  0  0  0  0 
  4 22  1  0  0  0  0 
M  END
> <Rank>
1

> <Priority_score>
1.34

> <Reaction_type>
alcohol oxidation

> <Parent_ID>
1

> <Parent_InChI>
InChI=1S/C8H5F13O/c9-3(10,1-2-22)4(11,12)5(13,14)6(15,16)7(17,18)8(19,20)21/h22H,1-2H2

> <Parent_SMILES>
C([H])([H])(C([H])([H])O[H])C(C(C(C(C(C(F)(F)F)(F)F)(F)F)(F)F)(F)F)(F)F

$$$$

  CDK     1104240437

 23 22  0  0  0  0  0  0  0  0999 V2000
    8.3695   -3.8122    0.0000 C   0  0  0  0  0  0  0  0  0  0  0  0
    9.6686   -4.5622    0.0000 C   0  0  0  0  0  0  0  0  0  0  0  0
   10.9676   -3.8122    0.0000 O   0  0  0  0  0  0  0  0  0  0  0  0
    9.6686   -6.0622    0.0000 O   0  0  0  0  0  0  0  0  0  0  0  0
    7.0705   -4.5622    0.0000 C   0  0  0  0  0  0  0  0  0  0  0  0
    5.7715   -3.8122    0.0000 C   0  0  0  0  0  0  0  0  0  0  0  0
    5.7715   -2.3122    0.0000 C   0  0  0  0  0  0  0  0  0  0  0  0
    4.0567   -1.3222    0.0000 C   0  0  0  0  0  0  0  0  0  0  0  0
    4.0567    0.6578    0.0000 C   0  0  0  0  0  0  0  0  0  0  0  0
    2.7577    1.4078    0.0000 C   0  0  0  0  0  0  0  0  0  0  0  0
    1.4586    0.6578    0.0000 F   0  0  0  0  0  0  0  0  0  0  0  0
    1.7935    2.5569    0.0000 F   0  0  0  0  0  0  0  0  0  0  0  0
    3.7219    2.5569    0.0000 F   0  0  0  0  0  0  0  0  0  0  0  0
    5.5339    0.3974    0.0000 F   0  0  0  0  0  0  0  0  0  0  0  0
    4.5698    2.0674    0.0000 F   0  0  0  0  0  0  0  0  0  0  0  0
    2.5795   -1.0617    0.0000 F   0  0  0  0  0  0  0  0  0  0  0  0
    3.5437   -2.7317    0.0000 F   0  0  0  0  0  0  0  0  0  0  0  0
    7.2487   -2.5726    0.0000 F   0  0  0  0  0  0  0  0  0  0  0  0
    6.2845   -0.9026    0.0000 F   0  0  0  0  0  0  0  0  0  0  0  0
    4.2942   -3.5517    0.0000 F   0  0  0  0  0  0  0  0  0  0  0  0
    5.2584   -5.2217    0.0000 F   0  0  0  0  0  0  0  0  0  0  0  0
    8.0347   -5.7112    0.0000 F   0  0  0  0  0  0  0  0  0  0  0  0
    6.1063   -5.7112    0.0000 F   0  0  0  0  0  0  0  0  0  0  0  0
  1  2  1  0  0  0  0 
  2  3  1  0  0  0  0 
  2  4  1  0  0  0  0 
  1  5  1  0  0  0  0 
  5  6  1  0  0  0  0 
  6  7  1  0  0  0  0 
  7  8  1  0  0  0  0 
  8  9  1  0  0  0  0 
  9 10  1  0  0  0  0 
 10 11  1  0  0  0  0 
 10 12  1  0  0  0  0 
 10 13  1  0  0  0  0 
  9 14  1  0  0  0  0 
  9 15  1  0  0  0  0 
  8 16  1  0  0  0  0 
  8 17  1  0  0  0  0 
  7 18  1  0  0  0  0 
  7 19  1  0  0  0  0 
  6 20  1  0  0  0  0 
  6 21  1  0  0  0  0 
  5 22  1  0  0  0  0 
  5 23  1  0  0  0  0 
M  END
> <Rank>
1

> <Priority_score>
1.34

> <Reaction_type>
aliphatic hydroxylation

> <Parent_ID>
1

> <Parent_InChI>
InChI=1S/C8H5F13O/c9-3(10,1-2-22)4(11,12)5(13,14)6(15,16)7(17,18)8(19,20)21/h22H,1-2H2

> <Parent_SMILES>
C([H])([H])(C([H])([H])O[H])C(C(C(C(C(C(F)(F)F)(F)F)(F)F)(F)F)(F)F)(F)F

$$$$

  CDK     1104240437

 22 21  0  0  0  0  0  0  0  0999 V2000
    9.2102   -4.2975    0.0000 C   0  0  0  0  0  0  0  0  0  0  0  0
   10.5092   -5.0475    0.0000 C   0  0  0  0  0  0  0  0  0  0  0  0
   11.8083   -4.2975    0.0000 O   0  0  0  0  0  0  0  0  0  0  0  0
    7.9111   -5.0475    0.0000 C   0  0  0  0  0  0  0  0  0  0  0  0
    6.6121   -4.2975    0.0000 C   0  0  0  0  0  0  0  0  0  0  0  0
    6.6121   -2.7975    0.0000 C   0  0  0  0  0  0  0  0  0  0  0  0
    4.8974   -1.8075    0.0000 C   0  0  0  0  0  0  0  0  0  0  0  0
    4.8974    0.1725    0.0000 C   0  0  0  0  0  0  0  0  0  0  0  0
    3.5983    0.9225    0.0000 C   0  0  0  0  0  0  0  0  0  0  0  0
    2.2993    0.1725    0.0000 F   0  0  0  0  0  0  0  0  0  0  0  0
    2.6342    2.0716    0.0000 F   0  0  0  0  0  0  0  0  0  0  0  0
    4.5625    2.0716    0.0000 F   0  0  0  0  0  0  0  0  0  0  0  0
    6.3746   -0.0880    0.0000 F   0  0  0  0  0  0  0  0  0  0  0  0
    5.4104    1.5820    0.0000 F   0  0  0  0  0  0  0  0  0  0  0  0
    3.4202   -1.5470    0.0000 F   0  0  0  0  0  0  0  0  0  0  0  0
    4.3843   -3.2170    0.0000 F   0  0  0  0  0  0  0  0  0  0  0  0
    8.0893   -3.0580    0.0000 F   0  0  0  0  0  0  0  0  0  0  0  0
    7.1251   -1.3880    0.0000 F   0  0  0  0  0  0  0  0  0  0  0  0
    5.1349   -4.0370    0.0000 F   0  0  0  0  0  0  0  0  0  0  0  0
    6.0991   -5.7070    0.0000 F   0  0  0  0  0  0  0  0  0  0  0  0
    8.8753   -6.1966    0.0000 F   0  0  0  0  0  0  0  0  0  0  0  0
    6.9470   -6.1966    0.0000 F   0  0  0  0  0  0  0  0  0  0  0  0
  1  2  2  0  0  0  0 
  2  3  1  4  0  0  0 
  1  4  1  0  0  0  0 
  4  5  1  0  0  0  0 
  5  6  1  0  0  0  0 
  6  7  1  0  0  0  0 
  7  8  1  0  0  0  0 
  8  9  1  0  0  0  0 
  9 10  1  0  0  0  0 
  9 11  1  0  0  0  0 
  9 12  1  0  0  0  0 
  8 13  1  0  0  0  0 
  8 14  1  0  0  0  0 
  7 15  1  0  0  0  0 
  7 16  1  0  0  0  0 
  6 17  1  0  0  0  0 
  6 18  1  0  0  0  0 
  5 19  1  0  0  0  0 
  5 20  1  0  0  0  0 
  4 21  1  0  0  0  0 
  4 22  1  0  0  0  0 
M  END
> <Rank>
3

> <Priority_score>
0.268

> <Reaction_type>
alkyl dehydrogenation

> <Parent_ID>
1

> <Parent_InChI>
InChI=1S/C8H5F13O/c9-3(10,1-2-22)4(11,12)5(13,14)6(15,16)7(17,18)8(19,20)21/h22H,1-2H2

> <Parent_SMILES>
C([H])([H])(C([H])([H])O[H])C(C(C(C(C(C(F)(F)F)(F)F)(F)F)(F)F)(F)F)(F)F

$$$$
