
  CDK     1104240439

 21 24  0  0  0  0  0  0  0  0999 V2000
    5.3863    2.2356    0.0000 C   0  0  0  0  0  0  0  0  0  0  0  0
    4.2867    1.2154    0.0000 C   0  0  0  0  0  0  0  0  0  0  0  0
    2.8533    1.6575    0.0000 C   0  0  0  0  0  0  0  0  0  0  0  0
    2.5196    3.1199    0.0000 C   0  0  0  0  0  0  0  0  0  0  0  0
    3.6191    4.1402    0.0000 C   0  0  0  0  0  0  0  0  0  0  0  0
    5.0525    3.6980    0.0000 C   0  0  0  0  0  0  0  0  0  0  0  0
    1.1681    3.7707    0.0000 O   0  0  0  0  0  0  0  0  0  0  0  0
   -0.1833    3.1199    0.0000 C   0  0  0  0  0  0  0  0  0  0  0  0
   -1.2829    4.1402    0.0000 C   0  0  0  0  0  0  0  0  0  0  0  0
   -2.7163    3.6980    0.0000 C   0  0  0  0  0  0  0  0  0  0  0  0
   -3.0501    2.2356    0.0000 C   0  0  0  0  0  0  0  0  0  0  0  0
   -1.9505    1.2154    0.0000 C   0  0  0  0  0  0  0  0  0  0  0  0
   -0.5171    1.6575    0.0000 C   0  0  0  0  0  0  0  0  0  0  0  0
    0.4181    0.4848    0.0000 C   0  0  2  0  0  0  0  0  0  0  0  0
   -0.0454   -0.9418    0.0000 C   0  0  0  0  0  0  0  0  0  0  0  0
    1.1681   -1.8235    0.0000 N   0  0  0  0  0  0  0  0  0  0  0  0
    2.3816   -0.9418    0.0000 C   0  0  0  0  0  0  0  0  0  0  0  0
    1.9181    0.4848    0.0000 C   0  0  1  0  0  0  0  0  0  0  0  0
    1.1681   -3.3235    0.0000 C   0  0  0  0  0  0  0  0  0  0  0  0
    2.4671   -4.0735    0.0000 O   0  0  0  0  0  0  0  0  0  0  0  0
   -4.4834    1.7935    0.0000 Cl  0  0  0  0  0  0  0  0  0  0  0  0
  1  2  2  0  0  0  0 
  2  3  1  0  0  0  0 
  3  4  2  0  0  0  0 
  4  5  1  0  0  0  0 
  5  6  2  0  0  0  0 
  1  6  1  0  0  0  0 
  4  7  1  0  0  0  0 
  7  8  1  0  0  0  0 
  8  9  2  0  0  0  0 
  9 10  1  0  0  0  0 
 10 11  2  0  0  0  0 
 11 12  1  0  0  0  0 
 12 13  2  0  0  0  0 
  8 13  1  0  0  0  0 
 13 14  1  0  0  0  0 
 14 15  1  1  0  0  0 
 15 16  1  0  0  0  0 
 16 17  1  0  0  0  0 
 18 17  1  6  0  0  0 
  3 18  1  0  0  0  0 
 14 18  1  0  0  0  0 
 16 19  1  0  0  0  0 
 19 20  1  0  0  0  0 
 11 21  1  0  0  0  0 
M  END
> <Rank>
1

> <Priority_score>
4.26

> <Reaction_type>
aliphatic hydroxylation

> <Parent_ID>
1

> <Parent_InChI>
InChI=1S/C17H16ClNO/c1-19-9-14-12-4-2-3-5-16(12)20-17-7-6-11(18)8-13(17)15(14)10-19/h2-8,14-15H,9-10H2,1H3/t14-,15-/m0/s1

> <Parent_SMILES>
C([H])([H])([H])N1C([H])([H])[C@@]2([H])C3=C(C([H])=C([H])C([H])=C3[H])OC4=C([H])C([H])=C(C([H])=C4[C@]2([H])C1([H])[H])Cl

$$$$

  CDK     1104240439

 19 22  0  0  0  0  0  0  0  0999 V2000
   -5.6084   -1.0440    0.0000 C   0  0  0  0  0  0  0  0  0  0  0  0
   -4.5088   -0.0237    0.0000 C   0  0  0  0  0  0  0  0  0  0  0  0
   -3.0755   -0.4659    0.0000 C   0  0  0  0  0  0  0  0  0  0  0  0
   -2.7417   -1.9283    0.0000 C   0  0  0  0  0  0  0  0  0  0  0  0
   -3.8413   -2.9485    0.0000 C   0  0  0  0  0  0  0  0  0  0  0  0
   -5.2746   -2.5064    0.0000 C   0  0  0  0  0  0  0  0  0  0  0  0
   -1.3902   -2.5791    0.0000 O   0  0  0  0  0  0  0  0  0  0  0  0
   -0.0388   -1.9283    0.0000 C   0  0  0  0  0  0  0  0  0  0  0  0
    1.0608   -2.9485    0.0000 C   0  0  0  0  0  0  0  0  0  0  0  0
    2.4941   -2.5064    0.0000 C   0  0  0  0  0  0  0  0  0  0  0  0
    2.8279   -1.0440    0.0000 C   0  0  0  0  0  0  0  0  0  0  0  0
    1.7283   -0.0237    0.0000 C   0  0  0  0  0  0  0  0  0  0  0  0
    0.2950   -0.4659    0.0000 C   0  0  0  0  0  0  0  0  0  0  0  0
   -0.6402    0.7069    0.0000 C   0  0  2  0  0  0  0  0  0  0  0  0
   -0.1767    2.1335    0.0000 C   0  0  0  0  0  0  0  0  0  0  0  0
   -1.3902    3.0152    0.0000 N   0  0  0  0  0  0  0  0  0  0  0  0
   -2.6038    2.1335    0.0000 C   0  0  0  0  0  0  0  0  0  0  0  0
   -2.1402    0.7069    0.0000 C   0  0  1  0  0  0  0  0  0  0  0  0
    4.2613   -0.6019    0.0000 Cl  0  0  0  0  0  0  0  0  0  0  0  0
  1  2  2  0  0  0  0 
  2  3  1  0  0  0  0 
  3  4  2  0  0  0  0 
  4  5  1  0  0  0  0 
  5  6  2  0  0  0  0 
  1  6  1  0  0  0  0 
  4  7  1  0  0  0  0 
  7  8  1  0  0  0  0 
  8  9  2  0  0  0  0 
  9 10  1  0  0  0  0 
 10 11  2  0  0  0  0 
 11 12  1  0  0  0  0 
 12 13  2  0  0  0  0 
  8 13  1  0  0  0  0 
 13 14  1  0  0  0  0 
 14 15  1  1  0  0  0 
 15 16  1  0  0  0  0 
 16 17  1  0  0  0  0 
 18 17  1  6  0  0  0 
  3 18  1  0  0  0  0 
 14 18  1  0  0  0  0 
 11 19  1  0  0  0  0 
M  END
> <Rank>
1

> <Priority_score>
4.26

> <Reaction_type>
N-dealkylation

> <Parent_ID>
1

> <Parent_InChI>
InChI=1S/C17H16ClNO/c1-19-9-14-12-4-2-3-5-16(12)20-17-7-6-11(18)8-13(17)15(14)10-19/h2-8,14-15H,9-10H2,1H3/t14-,15-/m0/s1

> <Parent_SMILES>
C([H])([H])([H])N1C([H])([H])[C@@]2([H])C3=C(C([H])=C([H])C([H])=C3[H])OC4=C([H])C([H])=C(C([H])=C4[C@]2([H])C1([H])[H])Cl

$$$$

  CDK     1104240439

 21 24  0  0  0  0  0  0  0  0999 V2000
    0.1635   -2.4585    0.0000 C   0  0  0  0  0  0  0  0  0  0  0  0
    0.4754   -0.9913    0.0000 N   0  0  0  0  0  0  0  0  0  0  0  0
   -1.0164   -0.8345    0.0000 C   0  0  0  0  0  0  0  0  0  0  0  0
   -1.3283    0.6327    0.0000 C   0  0  1  0  0  0  0  0  0  0  0  0
   -2.7246    1.1807    0.0000 C   0  0  0  0  0  0  0  0  0  0  0  0
   -3.1667    2.6141    0.0000 C   0  0  0  0  0  0  0  0  0  0  0  0
   -4.6291    2.9479    0.0000 C   0  0  0  0  0  0  0  0  0  0  0  0
   -5.6494    1.8483    0.0000 C   0  0  0  0  0  0  0  0  0  0  0  0
   -5.2072    0.4149    0.0000 C   0  0  0  0  0  0  0  0  0  0  0  0
   -3.7449    0.0811    0.0000 C   0  0  0  0  0  0  0  0  0  0  0  0
   -2.3217    3.8534    0.0000 O   0  0  0  0  0  0  0  0  0  0  0  0
   -0.8259    3.9655    0.0000 C   0  0  0  0  0  0  0  0  0  0  0  0
   -0.3838    5.3989    0.0000 C   0  0  0  0  0  0  0  0  0  0  0  0
    1.0786    5.7327    0.0000 C   0  0  0  0  0  0  0  0  0  0  0  0
    2.0988    4.6331    0.0000 C   0  0  0  0  0  0  0  0  0  0  0  0
    1.6567    3.1997    0.0000 C   0  0  0  0  0  0  0  0  0  0  0  0
    0.1943    2.8659    0.0000 C   0  0  0  0  0  0  0  0  0  0  0  0
   -0.0292    1.3827    0.0000 C   0  0  2  0  0  0  0  0  0  0  0  0
    1.0855    0.3790    0.0000 C   0  0  0  0  0  0  0  0  0  0  0  0
    3.5612    4.9669    0.0000 Cl  0  0  0  0  0  0  0  0  0  0  0  0
    1.9019   -1.4548    0.0000 O   0  0  0  0  0  0  0  0  0  0  0  0
  1  2  1  0  0  0  0 
  2  3  1  0  0  0  0 
  4  3  1  1  0  0  0 
  4  5  1  0  0  0  0 
  5  6  2  0  0  0  0 
  6  7  1  0  0  0  0 
  7  8  2  0  0  0  0 
  8  9  1  0  0  0  0 
  9 10  2  0  0  0  0 
  5 10  1  0  0  0  0 
  6 11  1  0  0  0  0 
 11 12  1  0  0  0  0 
 12 13  2  0  0  0  0 
 13 14  1  0  0  0  0 
 14 15  2  0  0  0  0 
 15 16  1  0  0  0  0 
 16 17  2  0  0  0  0 
 12 17  1  0  0  0  0 
 17 18  1  0  0  0  0 
  4 18  1  0  0  0  0 
 18 19  1  6  0  0  0 
  2 19  1  0  0  0  0 
 15 20  1  0  0  0  0 
  2 21  1  0  0  0  0 
M  CHG  1   2   1
M  CHG  1  21  -1
M  END
> <Rank>
1

> <Priority_score>
4.26

> <Reaction_type>
N-oxidation

> <Parent_ID>
1

> <Parent_InChI>
InChI=1S/C17H16ClNO/c1-19-9-14-12-4-2-3-5-16(12)20-17-7-6-11(18)8-13(17)15(14)10-19/h2-8,14-15H,9-10H2,1H3/t14-,15-/m0/s1

> <Parent_SMILES>
C([H])([H])([H])N1C([H])([H])[C@@]2([H])C3=C(C([H])=C([H])C([H])=C3[H])OC4=C([H])C([H])=C(C([H])=C4[C@]2([H])C1([H])[H])Cl

$$$$

  CDK     1104240439

 21 24  0  0  0  0  0  0  0  0999 V2000
    0.0764    4.4818    0.0000 C   0  0  0  0  0  0  0  0  0  0  0  0
    0.0764    2.9818    0.0000 N   0  0  0  0  0  0  0  0  0  0  0  0
    1.2900    2.1002    0.0000 C   0  0  0  0  0  0  0  0  0  0  0  0
    0.8264    0.6736    0.0000 C   0  0  1  0  0  0  0  0  0  0  0  0
    1.7617   -0.4992    0.0000 C   0  0  0  0  0  0  0  0  0  0  0  0
    3.1950   -0.0570    0.0000 C   0  0  0  0  0  0  0  0  0  0  0  0
    4.2946   -1.0773    0.0000 C   0  0  0  0  0  0  0  0  0  0  0  0
    3.9608   -2.5397    0.0000 C   0  0  0  0  0  0  0  0  0  0  0  0
    2.5275   -2.9818    0.0000 C   0  0  0  0  0  0  0  0  0  0  0  0
    1.4279   -1.9616    0.0000 C   0  0  0  0  0  0  0  0  0  0  0  0
    0.0764   -2.6124    0.0000 O   0  0  0  0  0  0  0  0  0  0  0  0
   -1.2750   -1.9616    0.0000 C   0  0  0  0  0  0  0  0  0  0  0  0
   -2.3746   -2.9818    0.0000 C   0  0  0  0  0  0  0  0  0  0  0  0
   -3.8080   -2.5397    0.0000 C   0  0  0  0  0  0  0  0  0  0  0  0
   -4.1417   -1.0773    0.0000 C   0  0  0  0  0  0  0  0  0  0  0  0
   -3.0422   -0.0570    0.0000 C   0  0  0  0  0  0  0  0  0  0  0  0
   -1.6088   -0.4992    0.0000 C   0  0  0  0  0  0  0  0  0  0  0  0
   -0.6736    0.6736    0.0000 C   0  0  2  0  0  0  0  0  0  0  0  0
   -1.1371    2.1002    0.0000 C   0  0  0  0  0  0  0  0  0  0  0  0
   -5.5751   -0.6352    0.0000 O   0  0  0  0  0  0  0  0  0  0  0  0
    5.7280   -0.6352    0.0000 Cl  0  0  0  0  0  0  0  0  0  0  0  0
  1  2  1  0  0  0  0 
  2  3  1  0  0  0  0 
  4  3  1  1  0  0  0 
  4  5  1  0  0  0  0 
  5  6  2  0  0  0  0 
  6  7  1  0  0  0  0 
  7  8  2  0  0  0  0 
  8  9  1  0  0  0  0 
  9 10  2  0  0  0  0 
  5 10  1  0  0  0  0 
 10 11  1  0  0  0  0 
 11 12  1  0  0  0  0 
 12 13  2  0  0  0  0 
 13 14  1  0  0  0  0 
 14 15  2  0  0  0  0 
 15 16  1  0  0  0  0 
 16 17  2  0  0  0  0 
 12 17  1  0  0  0  0 
 17 18  1  0  0  0  0 
  4 18  1  0  0  0  0 
 18 19  1  6  0  0  0 
  2 19  1  0  0  0  0 
 15 20  1  0  0  0  0 
  7 21  1  0  0  0  0 
M  END
> <Rank>
4

> <Priority_score>
2.07

> <Reaction_type>
aromatic hydroxylation

> <Parent_ID>
1

> <Parent_InChI>
InChI=1S/C17H16ClNO/c1-19-9-14-12-4-2-3-5-16(12)20-17-7-6-11(18)8-13(17)15(14)10-19/h2-8,14-15H,9-10H2,1H3/t14-,15-/m0/s1

> <Parent_SMILES>
C([H])([H])([H])N1C([H])([H])[C@@]2([H])C3=C(C([H])=C([H])C([H])=C3[H])OC4=C([H])C([H])=C(C([H])=C4[C@]2([H])C1([H])[H])Cl

$$$$

  CDK     1104240439

 21 24  0  0  0  0  0  0  0  0999 V2000
    1.5088   -2.5653    0.0000 C   0  0  0  0  0  0  0  0  0  0  0  0
    0.7588   -1.2663    0.0000 N   0  0  0  0  0  0  0  0  0  0  0  0
   -0.7330   -1.1095    0.0000 C   0  0  0  0  0  0  0  0  0  0  0  0
   -1.0449    0.3577    0.0000 C   0  0  1  0  0  0  0  0  0  0  0  0
   -2.4412    0.9058    0.0000 C   0  0  0  0  0  0  0  0  0  0  0  0
   -3.4615   -0.1938    0.0000 C   0  0  0  0  0  0  0  0  0  0  0  0
   -4.9239    0.1400    0.0000 C   0  0  0  0  0  0  0  0  0  0  0  0
   -5.3660    1.5733    0.0000 C   0  0  0  0  0  0  0  0  0  0  0  0
   -4.3457    2.6729    0.0000 C   0  0  0  0  0  0  0  0  0  0  0  0
   -2.8833    2.3391    0.0000 C   0  0  0  0  0  0  0  0  0  0  0  0
   -2.0384    3.5785    0.0000 O   0  0  0  0  0  0  0  0  0  0  0  0
   -0.5426    3.6906    0.0000 C   0  0  0  0  0  0  0  0  0  0  0  0
   -0.1004    5.1239    0.0000 C   0  0  0  0  0  0  0  0  0  0  0  0
    1.3620    5.4577    0.0000 C   0  0  0  0  0  0  0  0  0  0  0  0
    2.3822    4.3581    0.0000 C   0  0  0  0  0  0  0  0  0  0  0  0
    1.9401    2.9248    0.0000 C   0  0  0  0  0  0  0  0  0  0  0  0
    0.4777    2.5910    0.0000 C   0  0  0  0  0  0  0  0  0  0  0  0
    0.2541    1.1077    0.0000 C   0  0  2  0  0  0  0  0  0  0  0  0
    1.3689    0.1041    0.0000 C   0  0  0  0  0  0  0  0  0  0  0  0
    3.8446    4.6919    0.0000 Cl  0  0  0  0  0  0  0  0  0  0  0  0
   -6.8284    1.9071    0.0000 O   0  0  0  0  0  0  0  0  0  0  0  0
  1  2  1  0  0  0  0 
  2  3  1  0  0  0  0 
  4  3  1  1  0  0  0 
  4  5  1  0  0  0  0 
  5  6  2  0  0  0  0 
  6  7  1  0  0  0  0 
  7  8  2  0  0  0  0 
  8  9  1  0  0  0  0 
  9 10  2  0  0  0  0 
  5 10  1  0  0  0  0 
 10 11  1  0  0  0  0 
 11 12  1  0  0  0  0 
 12 13  2  0  0  0  0 
 13 14  1  0  0  0  0 
 14 15  2  0  0  0  0 
 15 16  1  0  0  0  0 
 16 17  2  0  0  0  0 
 12 17  1  0  0  0  0 
 17 18  1  0  0  0  0 
  4 18  1  0  0  0  0 
 18 19  1  6  0  0  0 
  2 19  1  0  0  0  0 
 15 20  1  0  0  0  0 
  8 21  1  0  0  0  0 
M  END
> <Rank>
5

> <Priority_score>
1.2

> <Reaction_type>
aromatic hydroxylation

> <Parent_ID>
1

> <Parent_InChI>
InChI=1S/C17H16ClNO/c1-19-9-14-12-4-2-3-5-16(12)20-17-7-6-11(18)8-13(17)15(14)10-19/h2-8,14-15H,9-10H2,1H3/t14-,15-/m0/s1

> <Parent_SMILES>
C([H])([H])([H])N1C([H])([H])[C@@]2([H])C3=C(C([H])=C([H])C([H])=C3[H])OC4=C([H])C([H])=C(C([H])=C4[C@]2([H])C1([H])[H])Cl

$$$$

  CDK     1104240439

 21 24  0  0  0  0  0  0  0  0999 V2000
   -4.0532    0.0769    0.0000 C   0  0  0  0  0  0  0  0  0  0  0  0
   -2.7541    0.8269    0.0000 N   0  0  0  0  0  0  0  0  0  0  0  0
   -2.5973    2.3187    0.0000 C   0  0  0  0  0  0  0  0  0  0  0  0
   -1.1301    2.6305    0.0000 C   0  0  1  0  0  0  0  0  0  0  0  0
   -0.5821    4.0269    0.0000 C   0  0  0  0  0  0  0  0  0  0  0  0
    0.8513    4.4690    0.0000 C   0  0  0  0  0  0  0  0  0  0  0  0
    1.1850    5.9314    0.0000 C   0  0  0  0  0  0  0  0  0  0  0  0
    0.0855    6.9516    0.0000 C   0  0  0  0  0  0  0  0  0  0  0  0
   -1.3479    6.5095    0.0000 C   0  0  0  0  0  0  0  0  0  0  0  0
   -1.6817    5.0471    0.0000 C   0  0  0  0  0  0  0  0  0  0  0  0
    2.0906    3.6240    0.0000 O   0  0  0  0  0  0  0  0  0  0  0  0
    2.2027    2.1282    0.0000 C   0  0  0  0  0  0  0  0  0  0  0  0
    1.1031    1.1079    0.0000 C   0  0  0  0  0  0  0  0  0  0  0  0
    1.4369   -0.3544    0.0000 C   0  0  0  0  0  0  0  0  0  0  0  0
    2.8703   -0.7966    0.0000 C   0  0  0  0  0  0  0  0  0  0  0  0
    3.9699    0.2237    0.0000 C   0  0  0  0  0  0  0  0  0  0  0  0
    3.6361    1.6861    0.0000 C   0  0  0  0  0  0  0  0  0  0  0  0
    5.4032   -0.2185    0.0000 O   0  0  0  0  0  0  0  0  0  0  0  0
    3.2041   -2.2590    0.0000 Cl  0  0  0  0  0  0  0  0  0  0  0  0
   -0.3801    1.3315    0.0000 C   0  0  2  0  0  0  0  0  0  0  0  0
   -1.3838    0.2168    0.0000 C   0  0  0  0  0  0  0  0  0  0  0  0
  1  2  1  0  0  0  0 
  2  3  1  0  0  0  0 
  4  3  1  1  0  0  0 
  4  5  1  0  0  0  0 
  5  6  2  0  0  0  0 
  6  7  1  0  0  0  0 
  7  8  2  0  0  0  0 
  8  9  1  0  0  0  0 
  9 10  2  0  0  0  0 
  5 10  1  0  0  0  0 
  6 11  1  0  0  0  0 
 11 12  1  0  0  0  0 
 12 13  2  0  0  0  0 
 13 14  1  0  0  0  0 
 14 15  2  0  0  0  0 
 15 16  1  0  0  0  0 
 16 17  2  0  0  0  0 
 12 17  1  0  0  0  0 
 16 18  1  0  0  0  0 
 15 19  1  0  0  0  0 
 13 20  1  0  0  0  0 
  4 20  1  0  0  0  0 
 20 21  1  6  0  0  0 
  2 21  1  0  0  0  0 
M  END
> <Rank>
6

> <Priority_score>
1.03

> <Reaction_type>
aromatic hydroxylation

> <Parent_ID>
1

> <Parent_InChI>
InChI=1S/C17H16ClNO/c1-19-9-14-12-4-2-3-5-16(12)20-17-7-6-11(18)8-13(17)15(14)10-19/h2-8,14-15H,9-10H2,1H3/t14-,15-/m0/s1

> <Parent_SMILES>
C([H])([H])([H])N1C([H])([H])[C@@]2([H])C3=C(C([H])=C([H])C([H])=C3[H])OC4=C([H])C([H])=C(C([H])=C4[C@]2([H])C1([H])[H])Cl

$$$$

  CDK     1104240439

 20 23  0  0  0  0  0  0  0  0999 V2000
    1.3217   -2.1235    0.0000 C   0  0  0  0  0  0  0  0  0  0  0  0
    0.5717   -0.8245    0.0000 N   0  0  0  0  0  0  0  0  0  0  0  0
   -0.9201   -0.6677    0.0000 C   0  0  0  0  0  0  0  0  0  0  0  0
   -1.2320    0.7995    0.0000 C   0  0  1  0  0  0  0  0  0  0  0  0
   -2.6283    1.3475    0.0000 C   0  0  0  0  0  0  0  0  0  0  0  0
   -3.0704    2.7809    0.0000 C   0  0  0  0  0  0  0  0  0  0  0  0
   -4.5328    3.1147    0.0000 C   0  0  0  0  0  0  0  0  0  0  0  0
   -5.5531    2.0151    0.0000 C   0  0  0  0  0  0  0  0  0  0  0  0
   -5.1109    0.5817    0.0000 C   0  0  0  0  0  0  0  0  0  0  0  0
   -3.6485    0.2480    0.0000 C   0  0  0  0  0  0  0  0  0  0  0  0
   -2.2254    4.0203    0.0000 O   0  0  0  0  0  0  0  0  0  0  0  0
   -0.7296    4.1324    0.0000 C   0  0  0  0  0  0  0  0  0  0  0  0
   -0.2875    5.5657    0.0000 C   0  0  0  0  0  0  0  0  0  0  0  0
    1.1749    5.8995    0.0000 C   0  0  0  0  0  0  0  0  0  0  0  0
    2.1952    4.7999    0.0000 C   0  0  0  0  0  0  0  0  0  0  0  0
    1.7530    3.3666    0.0000 C   0  0  0  0  0  0  0  0  0  0  0  0
    0.2906    3.0328    0.0000 C   0  0  0  0  0  0  0  0  0  0  0  0
    0.0671    1.5495    0.0000 C   0  0  2  0  0  0  0  0  0  0  0  0
    1.1818    0.5458    0.0000 C   0  0  0  0  0  0  0  0  0  0  0  0
    3.6576    5.1337    0.0000 Cl  0  0  0  0  0  0  0  0  0  0  0  0
  1  2  2  0  0  0  0 
  2  3  1  0  0  0  0 
  4  3  1  1  0  0  0 
  4  5  1  0  0  0  0 
  5  6  2  0  0  0  0 
  6  7  1  0  0  0  0 
  7  8  2  0  0  0  0 
  8  9  1  0  0  0  0 
  9 10  2  0  0  0  0 
  5 10  1  0  0  0  0 
  6 11  1  0  0  0  0 
 11 12  1  0  0  0  0 
 12 13  2  0  0  0  0 
 13 14  1  0  0  0  0 
 14 15  2  0  0  0  0 
 15 16  1  0  0  0  0 
 16 17  2  0  0  0  0 
 12 17  1  0  0  0  0 
 17 18  1  0  0  0  0 
  4 18  1  0  0  0  0 
 18 19  1  6  0  0  0 
  2 19  1  0  0  0  0 
 15 20  1  0  0  0  0 
M  CHG  1   2   1
M  END
> <Rank>
7

> <Priority_score>
0.852

> <Reaction_type>
dehydration of N-C bond

> <Parent_ID>
1

> <Parent_InChI>
InChI=1S/C17H16ClNO/c1-19-9-14-12-4-2-3-5-16(12)20-17-7-6-11(18)8-13(17)15(14)10-19/h2-8,14-15H,9-10H2,1H3/t14-,15-/m0/s1

> <Parent_SMILES>
C([H])([H])([H])N1C([H])([H])[C@@]2([H])C3=C(C([H])=C([H])C([H])=C3[H])OC4=C([H])C([H])=C(C([H])=C4[C@]2([H])C1([H])[H])Cl

$$$$
