
  CDK     1104240535

 25 28  0  0  0  0  0  0  0  0999 V2000
   -4.9081   -5.2517    0.0000 C   0  0  0  0  0  0  0  0  0  0  0  0
   -4.9081   -3.7508    0.0000 C   0  0  0  0  0  0  0  0  0  0  0  0
   -3.6088   -3.0012    0.0000 C   0  0  0  0  0  0  0  0  0  0  0  0
   -2.3095   -3.7525    0.0000 C   0  0  0  0  0  0  0  0  0  0  0  0
   -2.3095   -5.2533    0.0000 C   0  0  0  0  0  0  0  0  0  0  0  0
   -3.6088   -6.0029    0.0000 C   0  0  0  0  0  0  0  0  0  0  0  0
   -1.0106   -6.0035    0.0000 F   0  0  0  0  0  0  0  0  0  0  0  0
   -6.2070   -3.0006    0.0000 C   0  0  2  0  0  0  0  0  0  0  0  0
   -7.5070   -3.7506    0.0000 C   0  0  0  0  0  0  0  0  0  0  0  0
   -8.8070   -3.0006    0.0000 C   0  0  0  0  0  0  0  0  0  0  0  0
   -8.8070   -1.5006    0.0000 N   0  0  0  0  0  0  0  0  0  0  0  0
   -7.5070   -0.7506    0.0000 C   0  0  0  0  0  0  0  0  0  0  0  0
   -6.2070   -1.5006    0.0000 C   0  0  1  0  0  0  0  0  0  0  0  0
   -4.9081   -0.7504    0.0000 C   0  0  0  0  0  0  0  0  0  0  0  0
   -3.6089   -1.5002    0.0000 O   0  0  0  0  0  0  0  0  0  0  0  0
   -2.3100   -0.7500    0.0000 C   0  0  0  0  0  0  0  0  0  0  0  0
   -2.3100    0.7500    0.0000 C   0  0  0  0  0  0  0  0  0  0  0  0
   -1.0100    1.5000    0.0000 C   0  0  0  0  0  0  0  0  0  0  0  0
    0.2900    0.7500    0.0000 C   0  0  0  0  0  0  0  0  0  0  0  0
    0.2900   -0.7500    0.0000 C   0  0  0  0  0  0  0  0  0  0  0  0
   -1.0100   -1.5000    0.0000 C   0  0  0  0  0  0  0  0  0  0  0  0
    1.7200   -1.2100    0.0000 O   0  0  0  0  0  0  0  0  0  0  0  0
    2.6000   -0.0000    0.0000 C   0  0  0  0  0  0  0  0  0  0  0  0
    4.1000   -0.0000    0.0000 O   0  0  0  0  0  0  0  0  0  0  0  0
    1.7200    1.2100    0.0000 O   0  0  0  0  0  0  0  0  0  0  0  0
  1  2  2  0  0  0  0 
  2  3  1  0  0  0  0 
  3  4  2  0  0  0  0 
  4  5  1  0  0  0  0 
  5  6  2  0  0  0  0 
  1  6  1  0  0  0  0 
  5  7  1  0  0  0  0 
  8  2  1  6  0  0  0 
  8  9  1  0  0  0  0 
  9 10  1  0  0  0  0 
 10 11  1  0  0  0  0 
 11 12  1  0  0  0  0 
 12 13  1  0  0  0  0 
  8 13  1  0  0  0  0 
 13 14  1  1  0  0  0 
 14 15  1  0  0  0  0 
 15 16  1  0  0  0  0 
 16 17  2  0  0  0  0 
 17 18  1  0  0  0  0 
 18 19  2  0  0  0  0 
 19 20  1  0  0  0  0 
 20 21  2  0  0  0  0 
 16 21  1  0  0  0  0 
 20 22  1  0  0  0  0 
 22 23  1  0  0  0  0 
 23 24  1  0  0  0  0 
 23 25  1  0  0  0  0 
 19 25  1  0  0  0  0 
M  END
> <Rank>
1

> <Priority_score>
1.77

> <Reaction_type>
aliphatic hydroxylation

> <Parent_ID>
1

> <Parent_InChI>
InChI=1S/C19H20FNO3/c20-15-3-1-13(2-4-15)17-7-8-21-10-14(17)11-22-16-5-6-18-19(9-16)24-12-23-18/h1-6,9,14,17,21H,7-8,10-12H2/t14-,17-/m0/s1

> <Parent_SMILES>
C1([H])=C(C([H])=C([H])C(=C1[H])F)[C@]2([H])C([H])([H])C([H])([H])N([H])C([H])([H])[C@@]2([H])C([H])([H])OC3=C([H])C([H])=C4C(=C3[H])OC([H])([H])O4

$$$$

  CDK     1104240535

  3  2  0  0  0  0  0  0  0  0999 V2000
    1.2990   -0.7500    0.0000 C   0  0  0  0  0  0  0  0  0  0  0  0
    0.0000    0.0000    0.0000 O   0  0  0  0  0  0  0  0  0  0  0  0
    2.5981   -0.0000    0.0000 O   0  0  0  0  0  0  0  0  0  0  0  0
  1  2  2  0  0  0  0 
  1  3  1  0  0  0  0 
M  CHG  1   3  -1
M  END
> <Rank>
1

> <Priority_score>
1.77

> <Reaction_type>
O-dealkylation of methylenedioxyphenyl

> <Parent_ID>
1

> <Parent_InChI>
InChI=1S/C19H20FNO3/c20-15-3-1-13(2-4-15)17-7-8-21-10-14(17)11-22-16-5-6-18-19(9-16)24-12-23-18/h1-6,9,14,17,21H,7-8,10-12H2/t14-,17-/m0/s1

> <Parent_SMILES>
C1([H])=C(C([H])=C([H])C(=C1[H])F)[C@]2([H])C([H])([H])C([H])([H])N([H])C([H])([H])[C@@]2([H])C([H])([H])OC3=C([H])C([H])=C4C(=C3[H])OC([H])([H])O4

$$$$

  CDK     1104240535

 23 25  0  0  0  0  0  0  0  0999 V2000
    3.2285    5.1935    0.0000 C   0  0  0  0  0  0  0  0  0  0  0  0
    3.2285    3.6927    0.0000 C   0  0  0  0  0  0  0  0  0  0  0  0
    1.9292    2.9431    0.0000 C   0  0  0  0  0  0  0  0  0  0  0  0
    0.6300    3.6944    0.0000 C   0  0  0  0  0  0  0  0  0  0  0  0
    0.6300    5.1952    0.0000 C   0  0  0  0  0  0  0  0  0  0  0  0
    1.9292    5.9448    0.0000 C   0  0  0  0  0  0  0  0  0  0  0  0
   -0.6690    5.9454    0.0000 F   0  0  0  0  0  0  0  0  0  0  0  0
    4.5274    2.9425    0.0000 C   0  0  2  0  0  0  0  0  0  0  0  0
    5.8274    3.6925    0.0000 C   0  0  0  0  0  0  0  0  0  0  0  0
    7.1274    2.9425    0.0000 C   0  0  0  0  0  0  0  0  0  0  0  0
    7.1274    1.4425    0.0000 N   0  0  0  0  0  0  0  0  0  0  0  0
    5.8274    0.6925    0.0000 C   0  0  0  0  0  0  0  0  0  0  0  0
    4.5274    1.4425    0.0000 C   0  0  1  0  0  0  0  0  0  0  0  0
    3.2285    0.6923    0.0000 C   0  0  0  0  0  0  0  0  0  0  0  0
    3.2287   -0.8077    0.0000 O   0  0  0  0  0  0  0  0  0  0  0  0
    1.9298   -1.5579    0.0000 C   0  0  0  0  0  0  0  0  0  0  0  0
    1.9865   -2.9750    0.0000 C   0  0  0  0  0  0  0  0  0  0  0  0
    0.6903   -3.7496    0.0000 C   0  0  0  0  0  0  0  0  0  0  0  0
   -0.6256   -2.9925    0.0000 C   0  0  0  0  0  0  0  0  0  0  0  0
   -0.6474   -1.4968    0.0000 C   0  0  0  0  0  0  0  0  0  0  0  0
    0.6555   -0.7531    0.0000 C   0  0  0  0  0  0  0  0  0  0  0  0
   -1.9500   -0.7531    0.0000 O   0  0  0  0  0  0  0  0  0  0  0  0
   -1.9186   -3.7529    0.0000 O   0  0  0  0  0  0  0  0  0  0  0  0
  1  2  2  0  0  0  0 
  2  3  1  0  0  0  0 
  3  4  2  0  0  0  0 
  4  5  1  0  0  0  0 
  5  6  2  0  0  0  0 
  1  6  1  0  0  0  0 
  5  7  1  0  0  0  0 
  8  2  1  6  0  0  0 
  8  9  1  0  0  0  0 
  9 10  1  0  0  0  0 
 10 11  1  0  0  0  0 
 11 12  1  0  0  0  0 
 12 13  1  0  0  0  0 
  8 13  1  0  0  0  0 
 13 14  1  1  0  0  0 
 14 15  1  0  0  0  0 
 15 16  1  0  0  0  0 
 16 17  2  0  0  0  0 
 17 18  1  0  0  0  0 
 18 19  2  0  0  0  0 
 19 20  1  0  0  0  0 
 20 21  2  0  0  0  0 
 16 21  1  0  0  0  0 
 20 22  1  0  0  0  0 
 19 23  1  0  0  0  0 
M  END
> <Rank>
1

> <Priority_score>
1.77

> <Reaction_type>
O-dealkylation of methylenedioxyphenyl

> <Parent_ID>
1

> <Parent_InChI>
InChI=1S/C19H20FNO3/c20-15-3-1-13(2-4-15)17-7-8-21-10-14(17)11-22-16-5-6-18-19(9-16)24-12-23-18/h1-6,9,14,17,21H,7-8,10-12H2/t14-,17-/m0/s1

> <Parent_SMILES>
C1([H])=C(C([H])=C([H])C(=C1[H])F)[C@]2([H])C([H])([H])C([H])([H])N([H])C([H])([H])[C@@]2([H])C([H])([H])OC3=C([H])C([H])=C4C(=C3[H])OC([H])([H])O4

$$$$

  CDK     1104240535

 25 27  0  0  0  0  0  0  0  0999 V2000
    6.9224    6.1212    0.0000 C   0  0  0  0  0  0  0  0  0  0  0  0
    6.1720    4.8215    0.0000 C   0  0  0  0  0  0  0  0  0  0  0  0
    4.6720    4.8220    0.0000 C   0  0  0  0  0  0  0  0  0  0  0  0
    3.9224    6.1222    0.0000 C   0  0  0  0  0  0  0  0  0  0  0  0
    4.6728    7.4220    0.0000 C   0  0  0  0  0  0  0  0  0  0  0  0
    6.1728    7.4215    0.0000 C   0  0  0  0  0  0  0  0  0  0  0  0
    3.9230    8.7211    0.0000 F   0  0  0  0  0  0  0  0  0  0  0  0
    6.9218    3.5223    0.0000 C   0  0  2  0  0  0  0  0  0  0  0  0
    8.4226    3.5218    0.0000 C   0  0  0  0  0  0  0  0  0  0  0  0
    9.1734    2.2223    0.0000 C   0  0  0  0  0  0  0  0  0  0  0  0
    8.4234    0.9233    0.0000 N   0  0  0  0  0  0  0  0  0  0  0  0
    6.9226    0.9238    0.0000 C   0  0  0  0  0  0  0  0  0  0  0  0
    6.1718    2.2233    0.0000 C   0  0  1  0  0  0  0  0  0  0  0  0
    4.6718    2.2231    0.0000 C   0  0  0  0  0  0  0  0  0  0  0  0
    3.9220    0.9239    0.0000 O   0  0  0  0  0  0  0  0  0  0  0  0
    2.4220    0.9237    0.0000 C   0  0  0  0  0  0  0  0  0  0  0  0
    1.7625   -0.3319    0.0000 C   0  0  0  0  0  0  0  0  0  0  0  0
    0.2527   -0.3547    0.0000 C   0  0  0  0  0  0  0  0  0  0  0  0
   -0.5084    0.9590    0.0000 C   0  0  0  0  0  0  0  0  0  0  0  0
    0.2206    2.2652    0.0000 C   0  0  0  0  0  0  0  0  0  0  0  0
    1.7207    2.2578    0.0000 C   0  0  0  0  0  0  0  0  0  0  0  0
   -0.5356    3.5606    0.0000 O   0  0  0  0  0  0  0  0  0  0  0  0
   -2.0084    0.9470    0.0000 O   0  0  0  0  0  0  0  0  0  0  0  0
   -2.7479   -0.3581    0.0000 C   0  0  0  0  0  0  0  0  0  0  0  0
   -4.2479   -0.3701    0.0000 O   0  0  0  0  0  0  0  0  0  0  0  0
  1  2  2  0  0  0  0 
  2  3  1  0  0  0  0 
  3  4  2  0  0  0  0 
  4  5  1  0  0  0  0 
  5  6  2  0  0  0  0 
  1  6  1  0  0  0  0 
  5  7  1  0  0  0  0 
  8  2  1  6  0  0  0 
  8  9  1  0  0  0  0 
  9 10  1  0  0  0  0 
 10 11  1  0  0  0  0 
 11 12  1  0  0  0  0 
 12 13  1  0  0  0  0 
  8 13  1  0  0  0  0 
 13 14  1  1  0  0  0 
 14 15  1  0  0  0  0 
 15 16  1  0  0  0  0 
 16 17  2  0  0  0  0 
 17 18  1  0  0  0  0 
 18 19  2  0  0  0  0 
 19 20  1  0  0  0  0 
 20 21  2  0  0  0  0 
 16 21  1  0  0  0  0 
 20 22  1  0  0  0  0 
 19 23  1  0  0  0  0 
 23 24  1  0  0  0  0 
 24 25  2  0  0  0  0 
M  END
> <Rank>
1

> <Priority_score>
1.77

> <Reaction_type>
oxidative ether cleavage to one alcohol and one aldehyde/ketone

> <Parent_ID>
1

> <Parent_InChI>
InChI=1S/C19H20FNO3/c20-15-3-1-13(2-4-15)17-7-8-21-10-14(17)11-22-16-5-6-18-19(9-16)24-12-23-18/h1-6,9,14,17,21H,7-8,10-12H2/t14-,17-/m0/s1

> <Parent_SMILES>
C1([H])=C(C([H])=C([H])C(=C1[H])F)[C@]2([H])C([H])([H])C([H])([H])N([H])C([H])([H])[C@@]2([H])C([H])([H])OC3=C([H])C([H])=C4C(=C3[H])OC([H])([H])O4

$$$$

  CDK     1104240535

 25 27  0  0  0  0  0  0  0  0999 V2000
    5.8266    5.1935    0.0000 C   0  0  0  0  0  0  0  0  0  0  0  0
    5.8266    3.6927    0.0000 C   0  0  0  0  0  0  0  0  0  0  0  0
    4.5273    2.9431    0.0000 C   0  0  0  0  0  0  0  0  0  0  0  0
    3.2280    3.6944    0.0000 C   0  0  0  0  0  0  0  0  0  0  0  0
    3.2280    5.1952    0.0000 C   0  0  0  0  0  0  0  0  0  0  0  0
    4.5273    5.9448    0.0000 C   0  0  0  0  0  0  0  0  0  0  0  0
    1.9291    5.9454    0.0000 F   0  0  0  0  0  0  0  0  0  0  0  0
    7.1255    2.9425    0.0000 C   0  0  2  0  0  0  0  0  0  0  0  0
    8.4255    3.6925    0.0000 C   0  0  0  0  0  0  0  0  0  0  0  0
    9.7255    2.9425    0.0000 C   0  0  0  0  0  0  0  0  0  0  0  0
    9.7255    1.4425    0.0000 N   0  0  0  0  0  0  0  0  0  0  0  0
    8.4255    0.6925    0.0000 C   0  0  0  0  0  0  0  0  0  0  0  0
    7.1255    1.4425    0.0000 C   0  0  1  0  0  0  0  0  0  0  0  0
    5.8266    0.6923    0.0000 C   0  0  0  0  0  0  0  0  0  0  0  0
    5.8268   -0.8077    0.0000 O   0  0  0  0  0  0  0  0  0  0  0  0
    4.5279   -1.5579    0.0000 C   0  0  0  0  0  0  0  0  0  0  0  0
    4.5846   -2.9750    0.0000 C   0  0  0  0  0  0  0  0  0  0  0  0
    3.2883   -3.7496    0.0000 C   0  0  0  0  0  0  0  0  0  0  0  0
    1.9724   -2.9925    0.0000 C   0  0  0  0  0  0  0  0  0  0  0  0
    1.9507   -1.4968    0.0000 C   0  0  0  0  0  0  0  0  0  0  0  0
    3.2535   -0.7531    0.0000 C   0  0  0  0  0  0  0  0  0  0  0  0
    0.6480   -0.7531    0.0000 O   0  0  0  0  0  0  0  0  0  0  0  0
   -0.6474   -1.5093    0.0000 C   0  0  0  0  0  0  0  0  0  0  0  0
   -1.9500   -0.7656    0.0000 O   0  0  0  0  0  0  0  0  0  0  0  0
    0.6794   -3.7529    0.0000 O   0  0  0  0  0  0  0  0  0  0  0  0
  1  2  2  0  0  0  0 
  2  3  1  0  0  0  0 
  3  4  2  0  0  0  0 
  4  5  1  0  0  0  0 
  5  6  2  0  0  0  0 
  1  6  1  0  0  0  0 
  5  7  1  0  0  0  0 
  8  2  1  6  0  0  0 
  8  9  1  0  0  0  0 
  9 10  1  0  0  0  0 
 10 11  1  0  0  0  0 
 11 12  1  0  0  0  0 
 12 13  1  0  0  0  0 
  8 13  1  0  0  0  0 
 13 14  1  1  0  0  0 
 14 15  1  0  0  0  0 
 15 16  1  0  0  0  0 
 16 17  2  0  0  0  0 
 17 18  1  0  0  0  0 
 18 19  2  0  0  0  0 
 19 20  1  0  0  0  0 
 20 21  2  0  0  0  0 
 16 21  1  0  0  0  0 
 20 22  1  0  0  0  0 
 22 23  1  0  0  0  0 
 23 24  2  0  0  0  0 
 19 25  1  0  0  0  0 
M  END
> <Rank>
1

> <Priority_score>
1.77

> <Reaction_type>
oxidative ether cleavage to one alcohol and one aldehyde/ketone

> <Parent_ID>
1

> <Parent_InChI>
InChI=1S/C19H20FNO3/c20-15-3-1-13(2-4-15)17-7-8-21-10-14(17)11-22-16-5-6-18-19(9-16)24-12-23-18/h1-6,9,14,17,21H,7-8,10-12H2/t14-,17-/m0/s1

> <Parent_SMILES>
C1([H])=C(C([H])=C([H])C(=C1[H])F)[C@]2([H])C([H])([H])C([H])([H])N([H])C([H])([H])[C@@]2([H])C([H])([H])OC3=C([H])C([H])=C4C(=C3[H])OC([H])([H])O4

$$$$

  CDK     1104240535

 10 11  0  0  0  0  0  0  0  0999 V2000
   -2.3100   -0.7500    0.0000 C   0  0  0  0  0  0  0  0  0  0  0  0
   -2.3100    0.7500    0.0000 C   0  0  0  0  0  0  0  0  0  0  0  0
   -1.0100    1.5000    0.0000 C   0  0  0  0  0  0  0  0  0  0  0  0
    0.2900    0.7500    0.0000 C   0  0  0  0  0  0  0  0  0  0  0  0
    0.2900   -0.7500    0.0000 C   0  0  0  0  0  0  0  0  0  0  0  0
   -1.0100   -1.5000    0.0000 C   0  0  0  0  0  0  0  0  0  0  0  0
    1.7200   -1.2100    0.0000 O   0  0  0  0  0  0  0  0  0  0  0  0
    2.6000   -0.0000    0.0000 C   0  0  0  0  0  0  0  0  0  0  0  0
    1.7200    1.2100    0.0000 O   0  0  0  0  0  0  0  0  0  0  0  0
   -3.6089    1.5002    0.0000 O   0  0  0  0  0  0  0  0  0  0  0  0
  1  2  2  0  0  0  0 
  2  3  1  0  0  0  0 
  3  4  2  0  0  0  0 
  4  5  1  0  0  0  0 
  5  6  2  0  0  0  0 
  1  6  1  0  0  0  0 
  5  7  1  0  0  0  0 
  7  8  1  0  0  0  0 
  8  9  1  0  0  0  0 
  4  9  1  0  0  0  0 
  2 10  1  0  0  0  0 
M  END
> <Rank>
6

> <Priority_score>
1.29

> <Reaction_type>
oxidative ether cleavage to one alcohol and one aldehyde/ketone

> <Parent_ID>
1

> <Parent_InChI>
InChI=1S/C19H20FNO3/c20-15-3-1-13(2-4-15)17-7-8-21-10-14(17)11-22-16-5-6-18-19(9-16)24-12-23-18/h1-6,9,14,17,21H,7-8,10-12H2/t14-,17-/m0/s1

> <Parent_SMILES>
C1([H])=C(C([H])=C([H])C(=C1[H])F)[C@]2([H])C([H])([H])C([H])([H])N([H])C([H])([H])[C@@]2([H])C([H])([H])OC3=C([H])C([H])=C4C(=C3[H])OC([H])([H])O4

$$$$

  CDK     1104240535

 15 16  0  0  0  0  0  0  0  0999 V2000
   -0.3252    0.9354    0.0000 C   0  0  0  0  0  0  0  0  0  0  0  0
    0.9745    0.1849    0.0000 C   0  0  0  0  0  0  0  0  0  0  0  0
    0.9741   -1.3151    0.0000 C   0  0  0  0  0  0  0  0  0  0  0  0
   -0.3262   -2.0646    0.0000 C   0  0  0  0  0  0  0  0  0  0  0  0
   -1.6259   -1.3142    0.0000 C   0  0  0  0  0  0  0  0  0  0  0  0
   -1.6255    0.1858    0.0000 C   0  0  0  0  0  0  0  0  0  0  0  0
   -2.9251   -2.0640    0.0000 F   0  0  0  0  0  0  0  0  0  0  0  0
    2.2737    0.9347    0.0000 C   0  0  2  0  0  0  0  0  0  0  0  0
    2.2742    2.4356    0.0000 C   0  0  0  0  0  0  0  0  0  0  0  0
    3.5737    3.1864    0.0000 C   0  0  0  0  0  0  0  0  0  0  0  0
    4.8727    2.4364    0.0000 N   0  0  0  0  0  0  0  0  0  0  0  0
    4.8723    0.9356    0.0000 C   0  0  0  0  0  0  0  0  0  0  0  0
    3.5727    0.1847    0.0000 C   0  0  1  0  0  0  0  0  0  0  0  0
    3.5730   -1.3153    0.0000 C   0  0  0  0  0  0  0  0  0  0  0  0
    4.8721   -2.0651    0.0000 O   0  0  0  0  0  0  0  0  0  0  0  0
  1  2  2  0  0  0  0 
  2  3  1  0  0  0  0 
  3  4  2  0  0  0  0 
  4  5  1  0  0  0  0 
  5  6  2  0  0  0  0 
  1  6  1  0  0  0  0 
  5  7  1  0  0  0  0 
  8  2  1  6  0  0  0 
  8  9  1  0  0  0  0 
  9 10  1  0  0  0  0 
 10 11  1  0  0  0  0 
 11 12  1  0  0  0  0 
 12 13  1  0  0  0  0 
  8 13  1  0  0  0  0 
 13 14  1  1  0  0  0 
 14 15  2  0  0  0  0 
M  END
> <Rank>
6

> <Priority_score>
1.29

> <Reaction_type>
oxidative ether cleavage to one alcohol and one aldehyde/ketone

> <Parent_ID>
1

> <Parent_InChI>
InChI=1S/C19H20FNO3/c20-15-3-1-13(2-4-15)17-7-8-21-10-14(17)11-22-16-5-6-18-19(9-16)24-12-23-18/h1-6,9,14,17,21H,7-8,10-12H2/t14-,17-/m0/s1

> <Parent_SMILES>
C1([H])=C(C([H])=C([H])C(=C1[H])F)[C@]2([H])C([H])([H])C([H])([H])N([H])C([H])([H])[C@@]2([H])C([H])([H])OC3=C([H])C([H])=C4C(=C3[H])OC([H])([H])O4

$$$$

  CDK     1104240535

 25 28  0  0  0  0  0  0  0  0999 V2000
   -4.9081   -5.2517    0.0000 C   0  0  0  0  0  0  0  0  0  0  0  0
   -4.9081   -3.7508    0.0000 C   0  0  0  0  0  0  0  0  0  0  0  0
   -3.6088   -3.0012    0.0000 C   0  0  0  0  0  0  0  0  0  0  0  0
   -2.3095   -3.7525    0.0000 C   0  0  0  0  0  0  0  0  0  0  0  0
   -2.3095   -5.2533    0.0000 C   0  0  0  0  0  0  0  0  0  0  0  0
   -3.6088   -6.0029    0.0000 C   0  0  0  0  0  0  0  0  0  0  0  0
   -1.0106   -6.0035    0.0000 F   0  0  0  0  0  0  0  0  0  0  0  0
   -6.2070   -3.0006    0.0000 C   0  0  2  0  0  0  0  0  0  0  0  0
   -7.5070   -3.7506    0.0000 C   0  0  0  0  0  0  0  0  0  0  0  0
   -8.8070   -3.0006    0.0000 C   0  0  0  0  0  0  0  0  0  0  0  0
   -8.8070   -1.5006    0.0000 N   0  0  0  0  0  0  0  0  0  0  0  0
   -7.5070   -0.7506    0.0000 C   0  0  0  0  0  0  0  0  0  0  0  0
   -6.2070   -1.5006    0.0000 C   0  0  1  0  0  0  0  0  0  0  0  0
   -4.9081   -0.7504    0.0000 C   0  0  0  0  0  0  0  0  0  0  0  0
   -4.9083    0.7496    0.0000 O   0  0  0  0  0  0  0  0  0  0  0  0
   -3.6089   -1.5002    0.0000 O   0  0  0  0  0  0  0  0  0  0  0  0
   -2.3100   -0.7500    0.0000 C   0  0  0  0  0  0  0  0  0  0  0  0
   -2.3100    0.7500    0.0000 C   0  0  0  0  0  0  0  0  0  0  0  0
   -1.0100    1.5000    0.0000 C   0  0  0  0  0  0  0  0  0  0  0  0
    0.2900    0.7500    0.0000 C   0  0  0  0  0  0  0  0  0  0  0  0
    0.2900   -0.7500    0.0000 C   0  0  0  0  0  0  0  0  0  0  0  0
   -1.0100   -1.5000    0.0000 C   0  0  0  0  0  0  0  0  0  0  0  0
    1.7200   -1.2100    0.0000 O   0  0  0  0  0  0  0  0  0  0  0  0
    2.6000   -0.0000    0.0000 C   0  0  0  0  0  0  0  0  0  0  0  0
    1.7200    1.2100    0.0000 O   0  0  0  0  0  0  0  0  0  0  0  0
  1  2  2  0  0  0  0 
  2  3  1  0  0  0  0 
  3  4  2  0  0  0  0 
  4  5  1  0  0  0  0 
  5  6  2  0  0  0  0 
  1  6  1  0  0  0  0 
  5  7  1  0  0  0  0 
  8  2  1  6  0  0  0 
  8  9  1  0  0  0  0 
  9 10  1  0  0  0  0 
 10 11  1  0  0  0  0 
 11 12  1  0  0  0  0 
 13 12  1  1  0  0  0 
  8 13  1  0  0  0  0 
 13 14  1  0  0  0  0 
 14 15  1  0  0  0  0 
 14 16  1  0  0  0  0 
 16 17  1  0  0  0  0 
 17 18  2  0  0  0  0 
 18 19  1  0  0  0  0 
 19 20  2  0  0  0  0 
 20 21  1  0  0  0  0 
 21 22  2  0  0  0  0 
 17 22  1  0  0  0  0 
 21 23  1  0  0  0  0 
 23 24  1  0  0  0  0 
 24 25  1  0  0  0  0 
 20 25  1  0  0  0  0 
M  END
> <Rank>
6

> <Priority_score>
1.29

> <Reaction_type>
aliphatic hydroxylation

> <Parent_ID>
1

> <Parent_InChI>
InChI=1S/C19H20FNO3/c20-15-3-1-13(2-4-15)17-7-8-21-10-14(17)11-22-16-5-6-18-19(9-16)24-12-23-18/h1-6,9,14,17,21H,7-8,10-12H2/t14-,17-/m0/s1

> <Parent_SMILES>
C1([H])=C(C([H])=C([H])C(=C1[H])F)[C@]2([H])C([H])([H])C([H])([H])N([H])C([H])([H])[C@@]2([H])C([H])([H])OC3=C([H])C([H])=C4C(=C3[H])OC([H])([H])O4

$$$$

  CDK     1104240535

 25 27  0  0  0  0  0  0  0  0999 V2000
    9.7452    0.7510    0.0000 C   0  0  0  0  0  0  0  0  0  0  0  0
    8.4463    0.0008    0.0000 O   0  0  0  0  0  0  0  0  0  0  0  0
    7.1471    0.7506    0.0000 C   0  0  0  0  0  0  0  0  0  0  0  0
    5.8474    0.0002    0.0000 C   0  0  0  0  0  0  0  0  0  0  0  0
    4.5471    0.7498    0.0000 C   0  0  0  0  0  0  0  0  0  0  0  0
    3.2484   -0.0008    0.0000 O   0  0  0  0  0  0  0  0  0  0  0  0
    4.5466    2.2498    0.0000 C   0  0  0  0  0  0  0  0  0  0  0  0
    5.8464    3.0002    0.0000 C   0  0  0  0  0  0  0  0  0  0  0  0
    7.1466    2.2506    0.0000 C   0  0  0  0  0  0  0  0  0  0  0  0
    8.4453    3.0012    0.0000 O   0  0  0  0  0  0  0  0  0  0  0  0
    3.2475    2.9996    0.0000 O   0  0  0  0  0  0  0  0  0  0  0  0
    1.9486    2.2494    0.0000 C   0  0  0  0  0  0  0  0  0  0  0  0
    0.6494    2.9992    0.0000 C   0  0  2  0  0  0  0  0  0  0  0  0
    0.6489    4.5000    0.0000 C   0  0  0  0  0  0  0  0  0  0  0  0
   -0.6506    5.2508    0.0000 N   0  0  0  0  0  0  0  0  0  0  0  0
   -1.9496    4.5008    0.0000 C   0  0  0  0  0  0  0  0  0  0  0  0
   -1.9492    3.0000    0.0000 C   0  0  0  0  0  0  0  0  0  0  0  0
   -0.6496    2.2492    0.0000 C   0  0  1  0  0  0  0  0  0  0  0  0
   -0.6499    0.7492    0.0000 C   0  0  0  0  0  0  0  0  0  0  0  0
    0.6489   -0.0012    0.0000 C   0  0  0  0  0  0  0  0  0  0  0  0
    0.6480   -1.5021    0.0000 C   0  0  0  0  0  0  0  0  0  0  0  0
   -0.6518   -2.2525    0.0000 C   0  0  0  0  0  0  0  0  0  0  0  0
   -1.9506   -1.5021    0.0000 C   0  0  0  0  0  0  0  0  0  0  0  0
   -1.9496   -0.0012    0.0000 C   0  0  0  0  0  0  0  0  0  0  0  0
   -0.6520   -3.7525    0.0000 F   0  0  0  0  0  0  0  0  0  0  0  0
  1  2  1  0  0  0  0 
  2  3  1  0  0  0  0 
  3  4  2  0  0  0  0 
  4  5  1  0  0  0  0 
  5  6  2  0  0  0  0 
  5  7  1  0  0  0  0 
  7  8  2  0  0  0  0 
  8  9  1  0  0  0  0 
  3  9  1  0  0  0  0 
  9 10  2  0  0  0  0 
  7 11  1  0  0  0  0 
 11 12  1  0  0  0  0 
 13 12  1  1  0  0  0 
 13 14  1  0  0  0  0 
 14 15  1  0  0  0  0 
 15 16  1  0  0  0  0 
 16 17  1  0  0  0  0 
 17 18  1  0  0  0  0 
 13 18  1  0  0  0  0 
 18 19  1  6  0  0  0 
 19 20  2  0  0  0  0 
 20 21  1  0  0  0  0 
 21 22  2  0  0  0  0 
 22 23  1  0  0  0  0 
 23 24  2  0  0  0  0 
 19 24  1  0  0  0  0 
 22 25  1  0  0  0  0 
M  END
> <Rank>
9

> <Priority_score>
0.354

> <Reaction_type>
oxidation of 4-substituted anisole to quinone

> <Parent_ID>
1

> <Parent_InChI>
InChI=1S/C19H20FNO3/c20-15-3-1-13(2-4-15)17-7-8-21-10-14(17)11-22-16-5-6-18-19(9-16)24-12-23-18/h1-6,9,14,17,21H,7-8,10-12H2/t14-,17-/m0/s1

> <Parent_SMILES>
C1([H])=C(C([H])=C([H])C(=C1[H])F)[C@]2([H])C([H])([H])C([H])([H])N([H])C([H])([H])[C@@]2([H])C([H])([H])OC3=C([H])C([H])=C4C(=C3[H])OC([H])([H])O4

$$$$

  CDK     1104240535

 10 10  0  0  0  0  0  0  0  0999 V2000
   -1.5900   -0.8706    0.0000 C   0  0  0  0  0  0  0  0  0  0  0  0
   -0.2937   -1.6253    0.0000 O   0  0  0  0  0  0  0  0  0  0  0  0
    1.0081   -0.8799    0.0000 C   0  0  0  0  0  0  0  0  0  0  0  0
    1.0281    0.6201    0.0000 C   0  0  0  0  0  0  0  0  0  0  0  0
    2.3681    1.3101    0.0000 C   0  0  0  0  0  0  0  0  0  0  0  0
    2.3804    2.8100    0.0000 O   0  0  0  0  0  0  0  0  0  0  0  0
    3.6181    0.6401    0.0000 C   0  0  0  0  0  0  0  0  0  0  0  0
    3.6281   -0.8699    0.0000 C   0  0  0  0  0  0  0  0  0  0  0  0
    2.3081   -1.6199    0.0000 C   0  0  0  0  0  0  0  0  0  0  0  0
    2.3075   -3.1199    0.0000 O   0  0  0  0  0  0  0  0  0  0  0  0
  1  2  1  0  0  0  0 
  2  3  1  0  0  0  0 
  3  4  2  0  0  0  0 
  4  5  1  0  0  0  0 
  5  6  2  0  0  0  0 
  5  7  1  0  0  0  0 
  7  8  2  0  0  0  0 
  8  9  1  0  0  0  0 
  3  9  1  0  0  0  0 
  9 10  2  0  0  0  0 
M  END
> <Rank>
9

> <Priority_score>
0.354

> <Reaction_type>
oxidation of 4-substituted anisole to quinone

> <Parent_ID>
1

> <Parent_InChI>
InChI=1S/C19H20FNO3/c20-15-3-1-13(2-4-15)17-7-8-21-10-14(17)11-22-16-5-6-18-19(9-16)24-12-23-18/h1-6,9,14,17,21H,7-8,10-12H2/t14-,17-/m0/s1

> <Parent_SMILES>
C1([H])=C(C([H])=C([H])C(=C1[H])F)[C@]2([H])C([H])([H])C([H])([H])N([H])C([H])([H])[C@@]2([H])C([H])([H])OC3=C([H])C([H])=C4C(=C3[H])OC([H])([H])O4

$$$$

  CDK     1104240535

 15 16  0  0  0  0  0  0  0  0999 V2000
   -0.3252    0.9354    0.0000 C   0  0  0  0  0  0  0  0  0  0  0  0
    0.9745    0.1849    0.0000 C   0  0  0  0  0  0  0  0  0  0  0  0
    0.9741   -1.3151    0.0000 C   0  0  0  0  0  0  0  0  0  0  0  0
   -0.3262   -2.0646    0.0000 C   0  0  0  0  0  0  0  0  0  0  0  0
   -1.6259   -1.3142    0.0000 C   0  0  0  0  0  0  0  0  0  0  0  0
   -1.6255    0.1858    0.0000 C   0  0  0  0  0  0  0  0  0  0  0  0
   -2.9251   -2.0640    0.0000 F   0  0  0  0  0  0  0  0  0  0  0  0
    2.2737    0.9347    0.0000 C   0  0  2  0  0  0  0  0  0  0  0  0
    2.2742    2.4356    0.0000 C   0  0  0  0  0  0  0  0  0  0  0  0
    3.5737    3.1864    0.0000 C   0  0  0  0  0  0  0  0  0  0  0  0
    4.8727    2.4364    0.0000 N   0  0  0  0  0  0  0  0  0  0  0  0
    4.8723    0.9356    0.0000 C   0  0  0  0  0  0  0  0  0  0  0  0
    3.5727    0.1847    0.0000 C   0  0  1  0  0  0  0  0  0  0  0  0
    3.5730   -1.3153    0.0000 C   0  0  0  0  0  0  0  0  0  0  0  0
    4.8721   -2.0651    0.0000 O   0  0  0  0  0  0  0  0  0  0  0  0
  1  2  2  0  0  0  0 
  2  3  1  0  0  0  0 
  3  4  2  0  0  0  0 
  4  5  1  0  0  0  0 
  5  6  2  0  0  0  0 
  1  6  1  0  0  0  0 
  5  7  1  0  0  0  0 
  8  2  1  6  0  0  0 
  8  9  1  0  0  0  0 
  9 10  1  0  0  0  0 
 10 11  1  0  0  0  0 
 11 12  1  0  0  0  0 
 12 13  1  0  0  0  0 
  8 13  1  0  0  0  0 
 13 14  1  1  0  0  0 
 14 15  1  0  0  0  0 
M  END
> <Rank>
9

> <Priority_score>
0.354

> <Reaction_type>
oxidation of 4-substituted anisole to quinone

> <Parent_ID>
1

> <Parent_InChI>
InChI=1S/C19H20FNO3/c20-15-3-1-13(2-4-15)17-7-8-21-10-14(17)11-22-16-5-6-18-19(9-16)24-12-23-18/h1-6,9,14,17,21H,7-8,10-12H2/t14-,17-/m0/s1

> <Parent_SMILES>
C1([H])=C(C([H])=C([H])C(=C1[H])F)[C@]2([H])C([H])([H])C([H])([H])N([H])C([H])([H])[C@@]2([H])C([H])([H])OC3=C([H])C([H])=C4C(=C3[H])OC([H])([H])O4

$$$$

  CDK     1104240535

 14 15  0  0  0  0  0  0  0  0999 V2000
    1.9489    1.5002    0.0000 C   0  0  0  0  0  0  0  0  0  0  0  0
    0.6500    0.7500    0.0000 C   0  0  2  0  0  0  0  0  0  0  0  0
   -0.6500    1.5000    0.0000 C   0  0  0  0  0  0  0  0  0  0  0  0
   -1.9500    0.7500    0.0000 N   0  0  0  0  0  0  0  0  0  0  0  0
   -1.9500   -0.7500    0.0000 C   0  0  0  0  0  0  0  0  0  0  0  0
   -0.6500   -1.5000    0.0000 C   0  0  0  0  0  0  0  0  0  0  0  0
    0.6500   -0.7500    0.0000 C   0  0  1  0  0  0  0  0  0  0  0  0
    1.9489   -1.5002    0.0000 C   0  0  0  0  0  0  0  0  0  0  0  0
    3.2482   -0.7506    0.0000 C   0  0  0  0  0  0  0  0  0  0  0  0
    4.5475   -1.5019    0.0000 C   0  0  0  0  0  0  0  0  0  0  0  0
    4.5475   -3.0027    0.0000 C   0  0  0  0  0  0  0  0  0  0  0  0
    3.2482   -3.7523    0.0000 C   0  0  0  0  0  0  0  0  0  0  0  0
    1.9489   -3.0010    0.0000 C   0  0  0  0  0  0  0  0  0  0  0  0
    5.8464   -3.7529    0.0000 F   0  0  0  0  0  0  0  0  0  0  0  0
  2  1  1  1  0  0  0 
  2  3  1  0  0  0  0 
  3  4  1  0  0  0  0 
  4  5  1  0  0  0  0 
  5  6  1  0  0  0  0 
  6  7  1  0  0  0  0 
  2  7  1  0  0  0  0 
  7  8  1  6  0  0  0 
  8  9  2  0  0  0  0 
  9 10  1  0  0  0  0 
 10 11  2  0  0  0  0 
 11 12  1  0  0  0  0 
 12 13  2  0  0  0  0 
  8 13  1  0  0  0  0 
 11 14  1  0  0  0  0 
M  END
> <Rank>
12

> <Priority_score>
0.258

> <Reaction_type>
oxidation of 4-substituted anisole to quinone

> <Parent_ID>
1

> <Parent_InChI>
InChI=1S/C19H20FNO3/c20-15-3-1-13(2-4-15)17-7-8-21-10-14(17)11-22-16-5-6-18-19(9-16)24-12-23-18/h1-6,9,14,17,21H,7-8,10-12H2/t14-,17-/m0/s1

> <Parent_SMILES>
C1([H])=C(C([H])=C([H])C(=C1[H])F)[C@]2([H])C([H])([H])C([H])([H])N([H])C([H])([H])[C@@]2([H])C([H])([H])OC3=C([H])C([H])=C4C(=C3[H])OC([H])([H])O4

$$$$

  CDK     1104240535

 24 27  0  0  0  0  0  0  0  0999 V2000
   -4.9081   -5.2517    0.0000 C   0  0  0  0  0  0  0  0  0  0  0  0
   -4.9081   -3.7508    0.0000 C   0  0  0  0  0  0  0  0  0  0  0  0
   -3.6088   -3.0012    0.0000 C   0  0  0  0  0  0  0  0  0  0  0  0
   -2.3095   -3.7525    0.0000 C   0  0  0  0  0  0  0  0  0  0  0  0
   -2.3095   -5.2533    0.0000 C   0  0  0  0  0  0  0  0  0  0  0  0
   -3.6088   -6.0029    0.0000 C   0  0  0  0  0  0  0  0  0  0  0  0
   -1.0106   -6.0035    0.0000 F   0  0  0  0  0  0  0  0  0  0  0  0
   -6.2070   -3.0006    0.0000 C   0  0  2  0  0  0  0  0  0  0  0  0
   -7.5070   -3.7506    0.0000 C   0  0  0  0  0  0  0  0  0  0  0  0
   -8.8070   -3.0006    0.0000 C   0  0  0  0  0  0  0  0  0  0  0  0
   -8.8070   -1.5006    0.0000 N   0  0  0  0  0  0  0  0  0  0  0  0
   -7.5070   -0.7506    0.0000 C   0  0  0  0  0  0  0  0  0  0  0  0
   -6.2070   -1.5006    0.0000 C   0  0  0  0  0  0  0  0  0  0  0  0
   -4.9081   -0.7504    0.0000 C   0  0  0  0  0  0  0  0  0  0  0  0
   -3.6089   -1.5002    0.0000 O   0  0  0  0  0  0  0  0  0  0  0  0
   -2.3100   -0.7500    0.0000 C   0  0  0  0  0  0  0  0  0  0  0  0
   -2.3100    0.7500    0.0000 C   0  0  0  0  0  0  0  0  0  0  0  0
   -1.0100    1.5000    0.0000 C   0  0  0  0  0  0  0  0  0  0  0  0
    0.2900    0.7500    0.0000 C   0  0  0  0  0  0  0  0  0  0  0  0
    0.2900   -0.7500    0.0000 C   0  0  0  0  0  0  0  0  0  0  0  0
   -1.0100   -1.5000    0.0000 C   0  0  0  0  0  0  0  0  0  0  0  0
    1.7200   -1.2100    0.0000 O   0  0  0  0  0  0  0  0  0  0  0  0
    2.6000   -0.0000    0.0000 C   0  0  0  0  0  0  0  0  0  0  0  0
    1.7200    1.2100    0.0000 O   0  0  0  0  0  0  0  0  0  0  0  0
  1  2  2  0  0  0  0 
  2  3  1  0  0  0  0 
  3  4  2  0  0  0  0 
  4  5  1  0  0  0  0 
  5  6  2  0  0  0  0 
  1  6  1  0  0  0  0 
  5  7  1  0  0  0  0 
  8  2  1  6  0  0  0 
  8  9  1  0  0  0  0 
  9 10  1  0  0  0  0 
 10 11  1  0  0  0  0 
 11 12  1  0  0  0  0 
 12 13  1  0  0  0  0 
  8 13  1  0  0  0  0 
 13 14  2  0  0  0  0 
 14 15  1  4  0  0  0 
 15 16  1  0  0  0  0 
 16 17  2  0  0  0  0 
 17 18  1  0  0  0  0 
 18 19  2  0  0  0  0 
 19 20  1  0  0  0  0 
 20 21  2  0  0  0  0 
 16 21  1  0  0  0  0 
 20 22  1  0  0  0  0 
 22 23  1  0  0  0  0 
 23 24  1  0  0  0  0 
 19 24  1  0  0  0  0 
M  END
> <Rank>
12

> <Priority_score>
0.258

> <Reaction_type>
alkyl dehydrogenation

> <Parent_ID>
1

> <Parent_InChI>
InChI=1S/C19H20FNO3/c20-15-3-1-13(2-4-15)17-7-8-21-10-14(17)11-22-16-5-6-18-19(9-16)24-12-23-18/h1-6,9,14,17,21H,7-8,10-12H2/t14-,17-/m0/s1

> <Parent_SMILES>
C1([H])=C(C([H])=C([H])C(=C1[H])F)[C@]2([H])C([H])([H])C([H])([H])N([H])C([H])([H])[C@@]2([H])C([H])([H])OC3=C([H])C([H])=C4C(=C3[H])OC([H])([H])O4

$$$$

  CDK     1104240535

 11 11  0  0  0  0  0  0  0  0999 V2000
    4.9198    0.6401    0.0000 C   0  0  0  0  0  0  0  0  0  0  0  0
    4.9298   -0.8699    0.0000 C   0  0  0  0  0  0  0  0  0  0  0  0
    3.6098   -1.6199    0.0000 C   0  0  0  0  0  0  0  0  0  0  0  0
    3.6092   -3.1199    0.0000 O   0  0  0  0  0  0  0  0  0  0  0  0
    2.3098   -0.8799    0.0000 C   0  0  0  0  0  0  0  0  0  0  0  0
    2.3298    0.6201    0.0000 C   0  0  0  0  0  0  0  0  0  0  0  0
    3.6698    1.3101    0.0000 C   0  0  0  0  0  0  0  0  0  0  0  0
    3.6822    2.8100    0.0000 O   0  0  0  0  0  0  0  0  0  0  0  0
    1.0081   -1.6253    0.0000 O   0  0  0  0  0  0  0  0  0  0  0  0
   -0.2883   -0.8706    0.0000 C   0  0  0  0  0  0  0  0  0  0  0  0
   -1.5900   -1.6159    0.0000 O   0  0  0  0  0  0  0  0  0  0  0  0
  1  2  2  0  0  0  0 
  2  3  1  0  0  0  0 
  3  4  2  0  0  0  0 
  3  5  1  0  0  0  0 
  5  6  2  0  0  0  0 
  6  7  1  0  0  0  0 
  1  7  1  0  0  0  0 
  7  8  2  0  0  0  0 
  5  9  1  0  0  0  0 
  9 10  1  0  0  0  0 
 10 11  1  0  0  0  0 
M  END
> <Rank>
12

> <Priority_score>
0.258

> <Reaction_type>
oxidation of 4-substituted anisole to quinone

> <Parent_ID>
1

> <Parent_InChI>
InChI=1S/C19H20FNO3/c20-15-3-1-13(2-4-15)17-7-8-21-10-14(17)11-22-16-5-6-18-19(9-16)24-12-23-18/h1-6,9,14,17,21H,7-8,10-12H2/t14-,17-/m0/s1

> <Parent_SMILES>
C1([H])=C(C([H])=C([H])C(=C1[H])F)[C@]2([H])C([H])([H])C([H])([H])N([H])C([H])([H])[C@@]2([H])C([H])([H])OC3=C([H])C([H])=C4C(=C3[H])OC([H])([H])O4

$$$$
