
  CDK     1104240456

 19 20  0  0  0  0  0  0  0  0999 V2000
    2.9680    2.1761    0.0000 C   0  0  0  0  0  0  0  0  0  0  0  0
    3.0171    0.6769    0.0000 C   0  0  1  0  0  0  0  0  0  0  0  0
    1.7433   -0.1152    0.0000 C   0  0  0  0  0  0  0  0  0  0  0  0
    0.4737    0.5837    0.0000 C   0  0  0  0  0  0  0  0  0  0  0  0
   -0.8130   -0.1477    0.0000 C   0  0  0  0  0  0  0  0  0  0  0  0
   -0.7455   -1.6445    0.0000 C   0  0  0  0  0  0  0  0  0  0  0  0
    0.5240   -2.3434    0.0000 C   0  0  0  0  0  0  0  0  0  0  0  0
    1.8107   -1.6120    0.0000 C   0  0  0  0  0  0  0  0  0  0  0  0
   -2.0194   -2.4366    0.0000 C   0  0  0  0  0  0  0  0  0  0  0  0
   -3.3422   -1.7294    0.0000 C   0  0  1  0  0  0  0  0  0  0  0  0
   -3.5430   -0.2408    0.0000 C   0  0  0  0  0  0  0  0  0  0  0  0
   -5.0238    0.0109    0.0000 C   0  0  0  0  0  0  0  0  0  0  0  0
   -5.7253   -1.3066    0.0000 C   0  0  0  0  0  0  0  0  0  0  0  0
   -4.6830   -2.3853    0.0000 C   0  0  0  0  0  0  0  0  0  0  0  0
   -4.9424   -3.8627    0.0000 O   0  0  0  0  0  0  0  0  0  0  0  0
   -7.2108   -1.5151    0.0000 O   0  0  0  0  0  0  0  0  0  0  0  0
    4.3399   -0.0303    0.0000 C   0  0  0  0  0  0  0  0  0  0  0  0
    4.3890   -1.5295    0.0000 O   0  0  0  0  0  0  0  0  0  0  0  0
    5.6138    0.7618    0.0000 O   0  0  0  0  0  0  0  0  0  0  0  0
  2  1  1  6  0  0  0 
  2  3  1  0  0  0  0 
  3  4  2  0  0  0  0 
  4  5  1  0  0  0  0 
  5  6  2  0  0  0  0 
  6  7  1  0  0  0  0 
  7  8  2  0  0  0  0 
  3  8  1  0  0  0  0 
  6  9  1  0  0  0  0 
 10  9  1  6  0  0  0 
 10 11  1  0  0  0  0 
 11 12  1  0  0  0  0 
 12 13  1  0  0  0  0 
 13 14  1  0  0  0  0 
 10 14  1  0  0  0  0 
 14 15  2  0  0  0  0 
 13 16  1  0  0  0  0 
  2 17  1  0  0  0  0 
 17 18  2  0  0  0  0 
 17 19  1  0  0  0  0 
M  END
> <Rank>
1

> <Priority_score>
2.41

> <Reaction_type>
aliphatic hydroxylation

> <Parent_ID>
1

> <Parent_InChI>
InChI=1S/C15H18O3/c1-10(15(17)18)12-7-5-11(6-8-12)9-13-3-2-4-14(13)16/h5-8,10,13H,2-4,9H2,1H3,(H,17,18)/t10-,13+/m0/s1

> <Parent_SMILES>
C([H])([H])([H])[C@@]([H])(C1=C([H])C([H])=C(C([H])=C1[H])C([H])([H])[C@@]2([H])C([H])([H])C([H])([H])C([H])([H])C2=O)C(=O)O[H]

$$$$

  CDK     1104240456

 19 20  0  0  0  0  0  0  0  0999 V2000
   -4.1723   -1.8258    0.0000 C   0  0  0  0  0  0  0  0  0  0  0  0
   -3.4651   -0.5029    0.0000 C   0  0  1  0  0  0  0  0  0  0  0  0
   -1.9659   -0.4539    0.0000 C   0  0  0  0  0  0  0  0  0  0  0  0
   -1.2159   -1.6939    0.0000 C   0  0  0  0  0  0  0  0  0  0  0  0
    0.2641   -1.7039    0.0000 C   0  0  0  0  0  0  0  0  0  0  0  0
    0.9541   -0.3739    0.0000 C   0  0  0  0  0  0  0  0  0  0  0  0
    0.2041    0.8661    0.0000 C   0  0  0  0  0  0  0  0  0  0  0  0
   -1.2759    0.8761    0.0000 C   0  0  0  0  0  0  0  0  0  0  0  0
    2.4533   -0.3249    0.0000 C   0  0  0  0  0  0  0  0  0  0  0  0
    3.2453   -1.5987    0.0000 C   0  0  0  0  0  0  0  0  0  0  0  0
    3.7496   -3.0136    0.0000 C   0  0  0  0  0  0  0  0  0  0  0  0
    5.2505   -2.9536    0.0000 C   0  0  0  0  0  0  0  0  0  0  0  0
    5.6644   -1.5195    0.0000 C   0  0  0  0  0  0  0  0  0  0  0  0
    4.4215   -0.6797    0.0000 C   0  0  0  0  0  0  0  0  0  0  0  0
    4.3698    0.8194    0.0000 O   0  0  0  0  0  0  0  0  0  0  0  0
    1.8942   -2.2502    0.0000 O   0  0  0  0  0  0  0  0  0  0  0  0
   -4.2572    0.7709    0.0000 C   0  0  0  0  0  0  0  0  0  0  0  0
   -3.5501    2.0937    0.0000 O   0  0  0  0  0  0  0  0  0  0  0  0
   -5.7564    0.7218    0.0000 O   0  0  0  0  0  0  0  0  0  0  0  0
  2  1  1  6  0  0  0 
  2  3  1  0  0  0  0 
  3  4  2  0  0  0  0 
  4  5  1  0  0  0  0 
  5  6  2  0  0  0  0 
  6  7  1  0  0  0  0 
  7  8  2  0  0  0  0 
  3  8  1  0  0  0  0 
  6  9  1  0  0  0  0 
  9 10  1  0  0  0  0 
 10 11  1  0  0  0  0 
 11 12  1  0  0  0  0 
 12 13  1  0  0  0  0 
 13 14  1  0  0  0  0 
 10 14  1  0  0  0  0 
 14 15  2  0  0  0  0 
 10 16  1  0  0  0  0 
  2 17  1  0  0  0  0 
 17 18  2  0  0  0  0 
 17 19  1  0  0  0  0 
M  END
> <Rank>
2

> <Priority_score>
1.07

> <Reaction_type>
aliphatic hydroxylation

> <Parent_ID>
1

> <Parent_InChI>
InChI=1S/C15H18O3/c1-10(15(17)18)12-7-5-11(6-8-12)9-13-3-2-4-14(13)16/h5-8,10,13H,2-4,9H2,1H3,(H,17,18)/t10-,13+/m0/s1

> <Parent_SMILES>
C([H])([H])([H])[C@@]([H])(C1=C([H])C([H])=C(C([H])=C1[H])C([H])([H])[C@@]2([H])C([H])([H])C([H])([H])C([H])([H])C2=O)C(=O)O[H]

$$$$

  CDK     1104240456

 18 18  0  0  0  0  0  0  0  0999 V2000
    7.0379    2.8510    0.0000 C   0  0  0  0  0  0  0  0  0  0  0  0
    5.7641    2.0589    0.0000 C   0  0  0  0  0  0  0  0  0  0  0  0
    4.4412    2.7660    0.0000 C   0  0  0  0  0  0  0  0  0  0  0  0
    3.1674    1.9740    0.0000 C   0  0  2  0  0  0  0  0  0  0  0  0
    1.8445    2.6811    0.0000 C   0  0  0  0  0  0  0  0  0  0  0  0
    0.5707    1.8890    0.0000 C   0  0  0  0  0  0  0  0  0  0  0  0
   -0.6988    2.5879    0.0000 C   0  0  0  0  0  0  0  0  0  0  0  0
   -1.9855    1.8566    0.0000 C   0  0  0  0  0  0  0  0  0  0  0  0
   -1.9181    0.3598    0.0000 C   0  0  0  0  0  0  0  0  0  0  0  0
   -0.6486   -0.3391    0.0000 C   0  0  0  0  0  0  0  0  0  0  0  0
    0.6381    0.3922    0.0000 C   0  0  0  0  0  0  0  0  0  0  0  0
   -3.1919   -0.4323    0.0000 C   0  0  2  0  0  0  0  0  0  0  0  0
   -3.1429   -1.9315    0.0000 C   0  0  0  0  0  0  0  0  0  0  0  0
   -4.5148    0.2748    0.0000 C   0  0  0  0  0  0  0  0  0  0  0  0
   -4.5638    1.7740    0.0000 O   0  0  0  0  0  0  0  0  0  0  0  0
   -5.7886   -0.5173    0.0000 O   0  0  0  0  0  0  0  0  0  0  0  0
    3.2164    0.4748    0.0000 C   0  0  0  0  0  0  0  0  0  0  0  0
    4.5393   -0.2323    0.0000 O   0  0  0  0  0  0  0  0  0  0  0  0
  1  2  2  0  0  0  0 
  2  3  1  0  0  0  0 
  4  3  1  1  0  0  0 
  4  5  1  0  0  0  0 
  5  6  1  0  0  0  0 
  6  7  2  0  0  0  0 
  7  8  1  0  0  0  0 
  8  9  2  0  0  0  0 
  9 10  1  0  0  0  0 
 10 11  2  0  0  0  0 
  6 11  1  0  0  0  0 
  9 12  1  0  0  0  0 
 12 13  1  6  0  0  0 
 12 14  1  0  0  0  0 
 14 15  2  0  0  0  0 
 14 16  1  0  0  0  0 
  4 17  1  0  0  0  0 
 17 18  2  0  0  0  0 
M  END
> <Rank>
3

> <Priority_score>
0.482

> <Reaction_type>
deformylation

> <Parent_ID>
1

> <Parent_InChI>
InChI=1S/C15H18O3/c1-10(15(17)18)12-7-5-11(6-8-12)9-13-3-2-4-14(13)16/h5-8,10,13H,2-4,9H2,1H3,(H,17,18)/t10-,13+/m0/s1

> <Parent_SMILES>
C([H])([H])([H])[C@@]([H])(C1=C([H])C([H])=C(C([H])=C1[H])C([H])([H])[C@@]2([H])C([H])([H])C([H])([H])C([H])([H])C2=O)C(=O)O[H]

$$$$

  CDK     1104240456

 18 19  0  0  0  0  0  0  0  0999 V2000
    2.6257    2.3737    0.0000 C   0  0  0  0  0  0  0  0  0  0  0  0
    2.6747    0.8745    0.0000 C   0  0  1  0  0  0  0  0  0  0  0  0
    1.4009    0.0824    0.0000 C   0  0  0  0  0  0  0  0  0  0  0  0
    0.1314    0.7813    0.0000 C   0  0  0  0  0  0  0  0  0  0  0  0
   -1.1553    0.0500    0.0000 C   0  0  0  0  0  0  0  0  0  0  0  0
   -1.0879   -1.4468    0.0000 C   0  0  0  0  0  0  0  0  0  0  0  0
    0.1816   -2.1457    0.0000 C   0  0  0  0  0  0  0  0  0  0  0  0
    1.4684   -1.4144    0.0000 C   0  0  0  0  0  0  0  0  0  0  0  0
   -2.3617   -2.2389    0.0000 C   0  0  0  0  0  0  0  0  0  0  0  0
   -3.6846   -1.5318    0.0000 C   0  0  1  0  0  0  0  0  0  0  0  0
   -3.8853   -0.0432    0.0000 C   0  0  0  0  0  0  0  0  0  0  0  0
   -5.3661    0.2086    0.0000 C   0  0  0  0  0  0  0  0  0  0  0  0
   -6.0677   -1.1090    0.0000 C   0  0  0  0  0  0  0  0  0  0  0  0
   -5.0254   -2.1877    0.0000 C   0  0  0  0  0  0  0  0  0  0  0  0
   -5.2848   -3.6651    0.0000 O   0  0  0  0  0  0  0  0  0  0  0  0
    3.9976    0.1674    0.0000 C   0  0  0  0  0  0  0  0  0  0  0  0
    4.0466   -1.3318    0.0000 O   0  0  0  0  0  0  0  0  0  0  0  0
    5.2714    0.9595    0.0000 O   0  0  0  0  0  0  0  0  0  0  0  0
  2  1  1  6  0  0  0 
  2  3  1  0  0  0  0 
  3  4  2  0  0  0  0 
  4  5  1  0  0  0  0 
  5  6  2  0  0  0  0 
  6  7  1  0  0  0  0 
  7  8  2  0  0  0  0 
  3  8  1  0  0  0  0 
  6  9  1  0  0  0  0 
 10  9  1  6  0  0  0 
 10 11  1  0  0  0  0 
 11 12  1  0  0  0  0 
 12 13  2  0  0  0  0 
 13 14  1  0  0  0  0 
 10 14  1  0  0  0  0 
 14 15  2  0  0  0  0 
  2 16  1  0  0  0  0 
 16 17  2  0  0  0  0 
 16 18  1  0  0  0  0 
M  END
> <Rank>
3

> <Priority_score>
0.482

> <Reaction_type>
alkyl dehydrogenation

> <Parent_ID>
1

> <Parent_InChI>
InChI=1S/C15H18O3/c1-10(15(17)18)12-7-5-11(6-8-12)9-13-3-2-4-14(13)16/h5-8,10,13H,2-4,9H2,1H3,(H,17,18)/t10-,13+/m0/s1

> <Parent_SMILES>
C([H])([H])([H])[C@@]([H])(C1=C([H])C([H])=C(C([H])=C1[H])C([H])([H])[C@@]2([H])C([H])([H])C([H])([H])C([H])([H])C2=O)C(=O)O[H]

$$$$

  CDK     1104240456

 18 19  0  0  0  0  0  0  0  0999 V2000
    2.6257    2.3737    0.0000 C   0  0  0  0  0  0  0  0  0  0  0  0
    2.6747    0.8745    0.0000 C   0  0  1  0  0  0  0  0  0  0  0  0
    1.4009    0.0824    0.0000 C   0  0  0  0  0  0  0  0  0  0  0  0
    0.1314    0.7813    0.0000 C   0  0  0  0  0  0  0  0  0  0  0  0
   -1.1553    0.0500    0.0000 C   0  0  0  0  0  0  0  0  0  0  0  0
   -1.0879   -1.4468    0.0000 C   0  0  0  0  0  0  0  0  0  0  0  0
    0.1816   -2.1457    0.0000 C   0  0  0  0  0  0  0  0  0  0  0  0
    1.4684   -1.4144    0.0000 C   0  0  0  0  0  0  0  0  0  0  0  0
   -2.3617   -2.2389    0.0000 C   0  0  0  0  0  0  0  0  0  0  0  0
   -3.6846   -1.5318    0.0000 C   0  0  0  0  0  0  0  0  0  0  0  0
   -3.8853   -0.0432    0.0000 C   0  0  0  0  0  0  0  0  0  0  0  0
   -5.3661    0.2086    0.0000 C   0  0  0  0  0  0  0  0  0  0  0  0
   -6.0677   -1.1090    0.0000 C   0  0  0  0  0  0  0  0  0  0  0  0
   -5.0254   -2.1877    0.0000 C   0  0  0  0  0  0  0  0  0  0  0  0
   -5.2848   -3.6651    0.0000 O   0  0  0  0  0  0  0  0  0  0  0  0
    3.9976    0.1674    0.0000 C   0  0  0  0  0  0  0  0  0  0  0  0
    4.0466   -1.3318    0.0000 O   0  0  0  0  0  0  0  0  0  0  0  0
    5.2714    0.9595    0.0000 O   0  0  0  0  0  0  0  0  0  0  0  0
  2  1  1  6  0  0  0 
  2  3  1  0  0  0  0 
  3  4  2  0  0  0  0 
  4  5  1  0  0  0  0 
  5  6  2  0  0  0  0 
  6  7  1  0  0  0  0 
  7  8  2  0  0  0  0 
  3  8  1  0  0  0  0 
  6  9  1  0  0  0  0 
  9 10  1  0  0  0  0 
 10 11  2  0  0  0  0 
 11 12  1  0  0  0  0 
 12 13  1  0  0  0  0 
 13 14  1  0  0  0  0 
 10 14  1  0  0  0  0 
 14 15  2  0  0  0  0 
  2 16  1  0  0  0  0 
 16 17  2  0  0  0  0 
 16 18  1  0  0  0  0 
M  END
> <Rank>
5

> <Priority_score>
0.214

> <Reaction_type>
alkyl dehydrogenation

> <Parent_ID>
1

> <Parent_InChI>
InChI=1S/C15H18O3/c1-10(15(17)18)12-7-5-11(6-8-12)9-13-3-2-4-14(13)16/h5-8,10,13H,2-4,9H2,1H3,(H,17,18)/t10-,13+/m0/s1

> <Parent_SMILES>
C([H])([H])([H])[C@@]([H])(C1=C([H])C([H])=C(C([H])=C1[H])C([H])([H])[C@@]2([H])C([H])([H])C([H])([H])C([H])([H])C2=O)C(=O)O[H]

$$$$

  CDK     1104240456

 18 18  0  0  0  0  0  0  0  0999 V2000
    4.1718    1.4224    0.0000 C   0  0  0  0  0  0  0  0  0  0  0  0
    4.2208   -0.0768    0.0000 C   0  0  1  0  0  0  0  0  0  0  0  0
    2.9470   -0.8689    0.0000 C   0  0  0  0  0  0  0  0  0  0  0  0
    1.6775   -0.1700    0.0000 C   0  0  0  0  0  0  0  0  0  0  0  0
    0.3908   -0.9013    0.0000 C   0  0  0  0  0  0  0  0  0  0  0  0
    0.4582   -2.3982    0.0000 C   0  0  0  0  0  0  0  0  0  0  0  0
   -0.8156   -3.1902    0.0000 C   0  0  0  0  0  0  0  0  0  0  0  0
   -2.1385   -2.4831    0.0000 C   0  0  0  0  0  0  0  0  0  0  0  0
   -3.4123   -3.2752    0.0000 C   0  0  0  0  0  0  0  0  0  0  0  0
   -4.7352   -2.5680    0.0000 C   0  0  0  0  0  0  0  0  0  0  0  0
   -6.0090   -3.3601    0.0000 C   0  0  0  0  0  0  0  0  0  0  0  0
   -7.3318   -2.6530    0.0000 C   0  0  0  0  0  0  0  0  0  0  0  0
   -8.6057   -3.4450    0.0000 O   0  0  0  0  0  0  0  0  0  0  0  0
    1.7277   -3.0970    0.0000 C   0  0  0  0  0  0  0  0  0  0  0  0
    3.0145   -2.3657    0.0000 C   0  0  0  0  0  0  0  0  0  0  0  0
    5.5437   -0.7839    0.0000 C   0  0  0  0  0  0  0  0  0  0  0  0
    5.5927   -2.2831    0.0000 O   0  0  0  0  0  0  0  0  0  0  0  0
    6.8175    0.0081    0.0000 O   0  0  0  0  0  0  0  0  0  0  0  0
  2  1  1  6  0  0  0 
  2  3  1  0  0  0  0 
  3  4  2  0  0  0  0 
  4  5  1  0  0  0  0 
  5  6  2  0  0  0  0 
  6  7  1  0  0  0  0 
  7  8  1  4  0  0  0 
  8  9  2  0  0  0  0 
  9 10  1  0  0  0  0 
 10 11  1  0  0  0  0 
 11 12  1  0  0  0  0 
 12 13  2  0  0  0  0 
  6 14  1  0  0  0  0 
 14 15  2  0  0  0  0 
  3 15  1  0  0  0  0 
  2 16  1  0  0  0  0 
 16 17  2  0  0  0  0 
 16 18  1  0  0  0  0 
M  END
> <Rank>
5

> <Priority_score>
0.214

> <Reaction_type>
deformylation

> <Parent_ID>
1

> <Parent_InChI>
InChI=1S/C15H18O3/c1-10(15(17)18)12-7-5-11(6-8-12)9-13-3-2-4-14(13)16/h5-8,10,13H,2-4,9H2,1H3,(H,17,18)/t10-,13+/m0/s1

> <Parent_SMILES>
C([H])([H])([H])[C@@]([H])(C1=C([H])C([H])=C(C([H])=C1[H])C([H])([H])[C@@]2([H])C([H])([H])C([H])([H])C([H])([H])C2=O)C(=O)O[H]

$$$$

  CDK     1104240456

 18 19  0  0  0  0  0  0  0  0999 V2000
    2.6257    2.3737    0.0000 C   0  0  0  0  0  0  0  0  0  0  0  0
    2.6747    0.8745    0.0000 C   0  0  1  0  0  0  0  0  0  0  0  0
    1.4009    0.0824    0.0000 C   0  0  0  0  0  0  0  0  0  0  0  0
    0.1314    0.7813    0.0000 C   0  0  0  0  0  0  0  0  0  0  0  0
   -1.1553    0.0500    0.0000 C   0  0  0  0  0  0  0  0  0  0  0  0
   -1.0879   -1.4468    0.0000 C   0  0  0  0  0  0  0  0  0  0  0  0
    0.1816   -2.1457    0.0000 C   0  0  0  0  0  0  0  0  0  0  0  0
    1.4684   -1.4144    0.0000 C   0  0  0  0  0  0  0  0  0  0  0  0
   -2.3617   -2.2389    0.0000 C   0  0  0  0  0  0  0  0  0  0  0  0
   -3.6846   -1.5318    0.0000 C   0  0  0  0  0  0  0  0  0  0  0  0
   -3.8853   -0.0432    0.0000 C   0  0  0  0  0  0  0  0  0  0  0  0
   -5.3661    0.2086    0.0000 C   0  0  0  0  0  0  0  0  0  0  0  0
   -6.0677   -1.1090    0.0000 C   0  0  0  0  0  0  0  0  0  0  0  0
   -5.0254   -2.1877    0.0000 C   0  0  0  0  0  0  0  0  0  0  0  0
   -5.2848   -3.6651    0.0000 O   0  0  0  0  0  0  0  0  0  0  0  0
    3.9976    0.1674    0.0000 C   0  0  0  0  0  0  0  0  0  0  0  0
    4.0466   -1.3318    0.0000 O   0  0  0  0  0  0  0  0  0  0  0  0
    5.2714    0.9595    0.0000 O   0  0  0  0  0  0  0  0  0  0  0  0
  2  1  1  6  0  0  0 
  2  3  1  0  0  0  0 
  3  4  2  0  0  0  0 
  4  5  1  0  0  0  0 
  5  6  2  0  0  0  0 
  6  7  1  0  0  0  0 
  7  8  2  0  0  0  0 
  3  8  1  0  0  0  0 
  6  9  1  0  0  0  0 
  9 10  2  0  0  0  0 
 10 11  1  4  0  0  0 
 11 12  1  0  0  0  0 
 12 13  1  0  0  0  0 
 13 14  1  0  0  0  0 
 10 14  1  0  0  0  0 
 14 15  2  0  0  0  0 
  2 16  1  0  0  0  0 
 16 17  2  0  0  0  0 
 16 18  1  0  0  0  0 
M  END
> <Rank>
5

> <Priority_score>
0.214

> <Reaction_type>
alkyl dehydrogenation

> <Parent_ID>
1

> <Parent_InChI>
InChI=1S/C15H18O3/c1-10(15(17)18)12-7-5-11(6-8-12)9-13-3-2-4-14(13)16/h5-8,10,13H,2-4,9H2,1H3,(H,17,18)/t10-,13+/m0/s1

> <Parent_SMILES>
C([H])([H])([H])[C@@]([H])(C1=C([H])C([H])=C(C([H])=C1[H])C([H])([H])[C@@]2([H])C([H])([H])C([H])([H])C([H])([H])C2=O)C(=O)O[H]

$$$$

  CDK     1104240456

 18 18  0  0  0  0  0  0  0  0999 V2000
    4.1718    1.4224    0.0000 C   0  0  0  0  0  0  0  0  0  0  0  0
    4.2208   -0.0768    0.0000 C   0  0  1  0  0  0  0  0  0  0  0  0
    2.9470   -0.8689    0.0000 C   0  0  0  0  0  0  0  0  0  0  0  0
    1.6775   -0.1700    0.0000 C   0  0  0  0  0  0  0  0  0  0  0  0
    0.3908   -0.9013    0.0000 C   0  0  0  0  0  0  0  0  0  0  0  0
    0.4582   -2.3982    0.0000 C   0  0  0  0  0  0  0  0  0  0  0  0
   -0.8156   -3.1902    0.0000 C   0  0  0  0  0  0  0  0  0  0  0  0
   -2.1385   -2.4831    0.0000 C   0  0  0  0  0  0  0  0  0  0  0  0
   -3.4123   -3.2752    0.0000 C   0  0  0  0  0  0  0  0  0  0  0  0
   -4.7352   -2.5680    0.0000 C   0  0  0  0  0  0  0  0  0  0  0  0
   -6.0090   -3.3601    0.0000 C   0  0  0  0  0  0  0  0  0  0  0  0
   -7.3318   -2.6530    0.0000 C   0  0  0  0  0  0  0  0  0  0  0  0
   -8.6057   -3.4450    0.0000 O   0  0  0  0  0  0  0  0  0  0  0  0
    1.7277   -3.0970    0.0000 C   0  0  0  0  0  0  0  0  0  0  0  0
    3.0145   -2.3657    0.0000 C   0  0  0  0  0  0  0  0  0  0  0  0
    5.5437   -0.7839    0.0000 C   0  0  0  0  0  0  0  0  0  0  0  0
    5.5927   -2.2831    0.0000 O   0  0  0  0  0  0  0  0  0  0  0  0
    6.8175    0.0081    0.0000 O   0  0  0  0  0  0  0  0  0  0  0  0
  2  1  1  6  0  0  0 
  2  3  1  0  0  0  0 
  3  4  2  0  0  0  0 
  4  5  1  0  0  0  0 
  5  6  2  0  0  0  0 
  6  7  1  0  0  0  0 
  7  8  2  0  0  0  0 
  8  9  1  4  0  0  0 
  9 10  1  0  0  0  0 
 10 11  1  0  0  0  0 
 11 12  1  0  0  0  0 
 12 13  2  0  0  0  0 
  6 14  1  0  0  0  0 
 14 15  2  0  0  0  0 
  3 15  1  0  0  0  0 
  2 16  1  0  0  0  0 
 16 17  2  0  0  0  0 
 16 18  1  0  0  0  0 
M  END
> <Rank>
5

> <Priority_score>
0.214

> <Reaction_type>
deformylation

> <Parent_ID>
1

> <Parent_InChI>
InChI=1S/C15H18O3/c1-10(15(17)18)12-7-5-11(6-8-12)9-13-3-2-4-14(13)16/h5-8,10,13H,2-4,9H2,1H3,(H,17,18)/t10-,13+/m0/s1

> <Parent_SMILES>
C([H])([H])([H])[C@@]([H])(C1=C([H])C([H])=C(C([H])=C1[H])C([H])([H])[C@@]2([H])C([H])([H])C([H])([H])C([H])([H])C2=O)C(=O)O[H]

$$$$
