
  CDK     1104240526

  6  6  0  0  0  0  0  0  0  0999 V2000
   -0.8877    2.7675    0.0000 C   0  0  0  0  0  0  0  0  0  0  0  0
   -0.8877    1.2675    0.0000 C   0  0  0  0  0  0  0  0  0  0  0  0
   -2.1867    0.5175    0.0000 C   0  0  0  0  0  0  0  0  0  0  0  0
    0.4114    0.5175    0.0000 C   0  0  0  0  0  0  0  0  0  0  0  0
    1.9122    0.5170    0.0000 C   0  0  0  0  0  0  0  0  0  0  0  0
    1.1622   -0.7820    0.0000 O   0  0  0  0  0  0  0  0  0  0  0  0
  1  2  2  0  0  0  0 
  2  3  1  0  0  0  0 
  2  4  1  0  0  0  0 
  4  5  1  0  0  0  0 
  5  6  1  0  0  0  0 
  4  6  1  0  0  0  0 
M  END
> <Rank>
1

> <Priority_score>
3.91

> <Reaction_type>
epoxidation

> <Parent_ID>
1

> <Parent_InChI>
InChI=1S/C5H8/c1-4-5(2)3/h4H,1-2H2,3H3

> <Parent_SMILES>
C([H])([H])=C([H])C(=C([H])[H])C([H])([H])[H]

$$$$

  CDK     1104240526

  6  6  0  0  0  0  0  0  0  0999 V2000
    3.0301   -1.4076    0.0000 C   0  0  0  0  0  0  0  0  0  0  0  0
    1.5528   -1.6679    0.0000 C   0  0  0  0  0  0  0  0  0  0  0  0
    0.5888   -0.5187    0.0000 C   0  0  0  0  0  0  0  0  0  0  0  0
    1.5532    0.6302    0.0000 C   0  0  0  0  0  0  0  0  0  0  0  0
   -0.7103   -1.2687    0.0000 C   0  0  0  0  0  0  0  0  0  0  0  0
   -0.7107    0.2321    0.0000 O   0  0  0  0  0  0  0  0  0  0  0  0
  1  2  2  0  0  0  0 
  2  3  1  0  0  0  0 
  3  4  1  0  0  0  0 
  3  5  1  0  0  0  0 
  5  6  1  0  0  0  0 
  3  6  1  0  0  0  0 
M  END
> <Rank>
2

> <Priority_score>
3.57

> <Reaction_type>
epoxidation

> <Parent_ID>
1

> <Parent_InChI>
InChI=1S/C5H8/c1-4-5(2)3/h4H,1-2H2,3H3

> <Parent_SMILES>
C([H])([H])=C([H])C(=C([H])[H])C([H])([H])[H]

$$$$

  CDK     1104240526

  6  5  0  0  0  0  0  0  0  0999 V2000
    0.0000    0.0000    0.0000 C   0  0  0  0  0  0  0  0  0  0  0  0
    1.2990   -0.7500    0.0000 C   0  0  0  0  0  0  0  0  0  0  0  0
    2.5981   -0.0000    0.0000 C   0  0  0  0  0  0  0  0  0  0  0  0
    2.5981    1.5000    0.0000 C   0  0  0  0  0  0  0  0  0  0  0  0
    3.8971   -0.7500    0.0000 C   0  0  0  0  0  0  0  0  0  0  0  0
    5.1962   -0.0000    0.0000 O   0  0  0  0  0  0  0  0  0  0  0  0
  1  2  2  0  0  0  0 
  2  3  1  0  0  0  0 
  3  4  2  0  0  0  0 
  3  5  1  0  0  0  0 
  5  6  1  0  0  0  0 
M  END
> <Rank>
3

> <Priority_score>
2.8699999999999997

> <Reaction_type>
aliphatic hydroxylation

> <Parent_ID>
1

> <Parent_InChI>
InChI=1S/C5H8/c1-4-5(2)3/h4H,1-2H2,3H3

> <Parent_SMILES>
C([H])([H])=C([H])C(=C([H])[H])C([H])([H])[H]

$$$$
