
  CDK     1104240534

 30 32  0  0  0  0  0  0  0  0999 V2000
    7.4844   -0.5885    0.0000 C   0  0  0  0  0  0  0  0  0  0  0  0
    6.1817   -1.3321    0.0000 C   0  0  0  0  0  0  0  0  0  0  0  0
    4.8864   -0.5757    0.0000 C   0  0  0  0  0  0  0  0  0  0  0  0
    3.5837   -1.3193    0.0000 C   0  0  0  0  0  0  0  0  0  0  0  0
    2.2883   -0.5629    0.0000 C   0  0  0  0  0  0  0  0  0  0  0  0
    0.9893   -1.3129    0.0000 C   0  0  0  0  0  0  0  0  0  0  0  0
   -0.2952   -0.5880    0.0000 C   0  0  0  0  0  0  0  0  0  0  0  0
   -0.3207    0.9561    0.0000 C   0  0  0  0  0  0  0  0  0  0  0  0
    0.9783    1.7061    0.0000 C   0  0  0  0  0  0  0  0  0  0  0  0
    2.3029    0.9120    0.0000 C   0  0  0  0  0  0  0  0  0  0  0  0
   -1.6259    1.6953    0.0000 O   0  0  0  0  0  0  0  0  0  0  0  0
   -2.9187    0.9347    0.0000 C   0  0  0  0  0  0  0  0  0  0  0  0
   -4.2239    1.6739    0.0000 C   0  0  0  0  0  0  0  0  0  0  0  0
   -5.5167    0.9132    0.0000 N   0  0  0  0  0  0  0  0  0  0  0  0
   -5.5043   -0.5867    0.0000 C   0  0  0  0  0  0  0  0  0  0  0  0
   -6.8218    1.6525    0.0000 C   0  0  0  0  0  0  0  0  0  0  0  0
   -8.1147    0.8918    0.0000 O   0  0  0  0  0  0  0  0  0  0  0  0
    3.5763   -2.8193    0.0000 C   0  0  0  0  0  0  0  0  0  0  0  0
    4.8722   -3.5763    0.0000 C   0  0  0  0  0  0  0  0  0  0  0  0
    4.8606   -5.0684    0.0000 C   0  0  0  0  0  0  0  0  0  0  0  0
    3.5580   -5.8122    0.0000 C   0  0  0  0  0  0  0  0  0  0  0  0
    2.2670   -5.0639    0.0000 C   0  0  0  0  0  0  0  0  0  0  0  0
    2.2737   -3.5631    0.0000 C   0  0  0  0  0  0  0  0  0  0  0  0
    0.9657   -5.8099    0.0000 O   0  0  0  0  0  0  0  0  0  0  0  0
    4.8938    0.9243    0.0000 C   0  0  0  0  0  0  0  0  0  0  0  0
    3.5975    1.6807    0.0000 C   0  0  0  0  0  0  0  0  0  0  0  0
    3.6049    3.1807    0.0000 C   0  0  0  0  0  0  0  0  0  0  0  0
    4.9085    3.9243    0.0000 C   0  0  0  0  0  0  0  0  0  0  0  0
    6.2048    3.1679    0.0000 C   0  0  0  0  0  0  0  0  0  0  0  0
    6.1975    1.6679    0.0000 C   0  0  0  0  0  0  0  0  0  0  0  0
  1  2  1  0  0  0  0 
  2  3  1  0  0  0  0 
  3  4  2  0  0  0  0 
  4  5  1  0  0  0  0 
  5  6  2  0  0  0  0 
  6  7  1  0  0  0  0 
  7  8  2  0  0  0  0 
  8  9  1  0  0  0  0 
  9 10  2  0  0  0  0 
  5 10  1  0  0  0  0 
  8 11  1  0  0  0  0 
 11 12  1  0  0  0  0 
 12 13  1  0  0  0  0 
 13 14  1  0  0  0  0 
 14 15  1  0  0  0  0 
 14 16  1  0  0  0  0 
 16 17  1  0  0  0  0 
  4 18  1  0  0  0  0 
 18 19  2  0  0  0  0 
 19 20  1  0  0  0  0 
 20 21  2  0  0  0  0 
 21 22  1  0  0  0  0 
 22 23  2  0  0  0  0 
 18 23  1  0  0  0  0 
 22 24  1  0  0  0  0 
  3 25  1  0  0  0  0 
 25 26  2  0  0  0  0 
 26 27  1  0  0  0  0 
 27 28  2  0  0  0  0 
 28 29  1  0  0  0  0 
 29 30  2  0  0  0  0 
 25 30  1  0  0  0  0 
M  END
> <Rank>
1

> <Priority_score>
3.73

> <Reaction_type>
aliphatic hydroxylation

> <Parent_ID>
1

> <Parent_InChI>
InChI=1S/C26H29NO2/c1-4-25(20-9-6-5-7-10-20)26(22-11-8-12-23(28)19-22)21-13-15-24(16-14-21)29-18-17-27(2)3/h5-16,19,28H,4,17-18H2,1-3H3/b26-25+

> <Parent_SMILES>
C([H])([H])([H])C([H])([H])/C(=C(/C1=C([H])C([H])=C(C([H])=C1[H])OC([H])([H])C([H])([H])N(C([H])([H])[H])C([H])([H])[H])\C2=C([H])C([H])=C([H])C(=C2[H])O[H])/C3=C([H])C([H])=C([H])C([H])=C3[H]

$$$$

  CDK     1104240534

 28 30  0  0  0  0  0  0  0  0999 V2000
   -5.5206    0.1887    0.0000 C   0  0  0  0  0  0  0  0  0  0  0  0
   -4.2179    0.9323    0.0000 C   0  0  0  0  0  0  0  0  0  0  0  0
   -2.9225    0.1759    0.0000 C   0  0  0  0  0  0  0  0  0  0  0  0
   -1.6198    0.9195    0.0000 C   0  0  0  0  0  0  0  0  0  0  0  0
   -0.3245    0.1631    0.0000 C   0  0  0  0  0  0  0  0  0  0  0  0
    0.9745    0.9131    0.0000 C   0  0  0  0  0  0  0  0  0  0  0  0
    2.2591    0.1882    0.0000 C   0  0  0  0  0  0  0  0  0  0  0  0
    2.2845   -1.3559    0.0000 C   0  0  0  0  0  0  0  0  0  0  0  0
    0.9855   -2.1059    0.0000 C   0  0  0  0  0  0  0  0  0  0  0  0
   -0.3390   -1.3118    0.0000 C   0  0  0  0  0  0  0  0  0  0  0  0
    3.5897   -2.0951    0.0000 O   0  0  0  0  0  0  0  0  0  0  0  0
    4.8825   -1.3345    0.0000 C   0  0  0  0  0  0  0  0  0  0  0  0
    6.1877   -2.0737    0.0000 C   0  0  0  0  0  0  0  0  0  0  0  0
    7.4805   -1.3130    0.0000 N   0  0  0  0  0  0  0  0  0  0  0  0
    8.7857   -2.0523    0.0000 C   0  0  0  0  0  0  0  0  0  0  0  0
   -1.6125    2.4195    0.0000 C   0  0  0  0  0  0  0  0  0  0  0  0
   -2.9084    3.1765    0.0000 C   0  0  0  0  0  0  0  0  0  0  0  0
   -2.8968    4.6686    0.0000 C   0  0  0  0  0  0  0  0  0  0  0  0
   -1.5942    5.4124    0.0000 C   0  0  0  0  0  0  0  0  0  0  0  0
   -0.3032    4.6641    0.0000 C   0  0  0  0  0  0  0  0  0  0  0  0
   -0.3099    3.1633    0.0000 C   0  0  0  0  0  0  0  0  0  0  0  0
    0.9982    5.4101    0.0000 O   0  0  0  0  0  0  0  0  0  0  0  0
   -2.9299   -1.3241    0.0000 C   0  0  0  0  0  0  0  0  0  0  0  0
   -1.6336   -2.0805    0.0000 C   0  0  0  0  0  0  0  0  0  0  0  0
   -1.6410   -3.5805    0.0000 C   0  0  0  0  0  0  0  0  0  0  0  0
   -2.9447   -4.3241    0.0000 C   0  0  0  0  0  0  0  0  0  0  0  0
   -4.2410   -3.5677    0.0000 C   0  0  0  0  0  0  0  0  0  0  0  0
   -4.2336   -2.0677    0.0000 C   0  0  0  0  0  0  0  0  0  0  0  0
  1  2  1  0  0  0  0 
  2  3  1  0  0  0  0 
  3  4  2  0  0  0  0 
  4  5  1  0  0  0  0 
  5  6  2  0  0  0  0 
  6  7  1  0  0  0  0 
  7  8  2  0  0  0  0 
  8  9  1  0  0  0  0 
  9 10  2  0  0  0  0 
  5 10  1  0  0  0  0 
  8 11  1  0  0  0  0 
 11 12  1  0  0  0  0 
 12 13  1  0  0  0  0 
 13 14  1  0  0  0  0 
 14 15  1  0  0  0  0 
  4 16  1  0  0  0  0 
 16 17  2  0  0  0  0 
 17 18  1  0  0  0  0 
 18 19  2  0  0  0  0 
 19 20  1  0  0  0  0 
 20 21  2  0  0  0  0 
 16 21  1  0  0  0  0 
 20 22  1  0  0  0  0 
  3 23  1  0  0  0  0 
 23 24  2  0  0  0  0 
 24 25  1  0  0  0  0 
 25 26  2  0  0  0  0 
 26 27  1  0  0  0  0 
 27 28  2  0  0  0  0 
 23 28  1  0  0  0  0 
M  END
> <Rank>
1

> <Priority_score>
3.73

> <Reaction_type>
N-dealkylation

> <Parent_ID>
1

> <Parent_InChI>
InChI=1S/C26H29NO2/c1-4-25(20-9-6-5-7-10-20)26(22-11-8-12-23(28)19-22)21-13-15-24(16-14-21)29-18-17-27(2)3/h5-16,19,28H,4,17-18H2,1-3H3/b26-25+

> <Parent_SMILES>
C([H])([H])([H])C([H])([H])/C(=C(/C1=C([H])C([H])=C(C([H])=C1[H])OC([H])([H])C([H])([H])N(C([H])([H])[H])C([H])([H])[H])\C2=C([H])C([H])=C([H])C(=C2[H])O[H])/C3=C([H])C([H])=C([H])C([H])=C3[H]

$$$$

  CDK     1104240534

 30 32  0  0  0  0  0  0  0  0999 V2000
   -5.7997   -0.2948    0.0000 C   0  0  0  0  0  0  0  0  0  0  0  0
   -4.4970    0.4488    0.0000 C   0  0  0  0  0  0  0  0  0  0  0  0
   -3.2017   -0.3075    0.0000 C   0  0  0  0  0  0  0  0  0  0  0  0
   -1.8989    0.4361    0.0000 C   0  0  0  0  0  0  0  0  0  0  0  0
   -0.6036   -0.3203    0.0000 C   0  0  0  0  0  0  0  0  0  0  0  0
    0.6954    0.4297    0.0000 C   0  0  0  0  0  0  0  0  0  0  0  0
    1.9799   -0.2952    0.0000 C   0  0  0  0  0  0  0  0  0  0  0  0
    2.0054   -1.8393    0.0000 C   0  0  0  0  0  0  0  0  0  0  0  0
    0.7064   -2.5893    0.0000 C   0  0  0  0  0  0  0  0  0  0  0  0
   -0.6181   -1.7952    0.0000 C   0  0  0  0  0  0  0  0  0  0  0  0
    3.3106   -2.5786    0.0000 O   0  0  0  0  0  0  0  0  0  0  0  0
    4.6034   -1.8179    0.0000 C   0  0  0  0  0  0  0  0  0  0  0  0
    5.9086   -2.5571    0.0000 C   0  0  0  0  0  0  0  0  0  0  0  0
    7.2014   -1.7964    0.0000 N   0  0  0  0  0  0  0  0  0  0  0  0
    8.5066   -2.5357    0.0000 C   0  0  0  0  0  0  0  0  0  0  0  0
    8.1561   -0.6395    0.0000 C   0  0  0  0  0  0  0  0  0  0  0  0
    6.2278   -0.6554    0.0000 O   0  0  0  0  0  0  0  0  0  0  0  0
   -1.8916    1.9360    0.0000 C   0  0  0  0  0  0  0  0  0  0  0  0
   -3.1875    2.6930    0.0000 C   0  0  0  0  0  0  0  0  0  0  0  0
   -3.1759    4.1852    0.0000 C   0  0  0  0  0  0  0  0  0  0  0  0
   -1.8733    4.9290    0.0000 C   0  0  0  0  0  0  0  0  0  0  0  0
   -0.5823    4.1807    0.0000 C   0  0  0  0  0  0  0  0  0  0  0  0
   -0.5890    2.6798    0.0000 C   0  0  0  0  0  0  0  0  0  0  0  0
    0.7191    4.9266    0.0000 O   0  0  0  0  0  0  0  0  0  0  0  0
   -3.2090   -1.8075    0.0000 C   0  0  0  0  0  0  0  0  0  0  0  0
   -1.9127   -2.5639    0.0000 C   0  0  0  0  0  0  0  0  0  0  0  0
   -1.9201   -4.0639    0.0000 C   0  0  0  0  0  0  0  0  0  0  0  0
   -3.2238   -4.8075    0.0000 C   0  0  0  0  0  0  0  0  0  0  0  0
   -4.5201   -4.0511    0.0000 C   0  0  0  0  0  0  0  0  0  0  0  0
   -4.5127   -2.5511    0.0000 C   0  0  0  0  0  0  0  0  0  0  0  0
  1  2  1  0  0  0  0 
  2  3  1  0  0  0  0 
  3  4  2  0  0  0  0 
  4  5  1  0  0  0  0 
  5  6  2  0  0  0  0 
  6  7  1  0  0  0  0 
  7  8  2  0  0  0  0 
  8  9  1  0  0  0  0 
  9 10  2  0  0  0  0 
  5 10  1  0  0  0  0 
  8 11  1  0  0  0  0 
 11 12  1  0  0  0  0 
 12 13  1  0  0  0  0 
 13 14  1  0  0  0  0 
 14 15  1  0  0  0  0 
 14 16  1  0  0  0  0 
 14 17  1  0  0  0  0 
  4 18  1  0  0  0  0 
 18 19  2  0  0  0  0 
 19 20  1  0  0  0  0 
 20 21  2  0  0  0  0 
 21 22  1  0  0  0  0 
 22 23  2  0  0  0  0 
 18 23  1  0  0  0  0 
 22 24  1  0  0  0  0 
  3 25  1  0  0  0  0 
 25 26  2  0  0  0  0 
 26 27  1  0  0  0  0 
 27 28  2  0  0  0  0 
 28 29  1  0  0  0  0 
 29 30  2  0  0  0  0 
 25 30  1  0  0  0  0 
M  CHG  1  14   1
M  CHG  1  17  -1
M  END
> <Rank>
1

> <Priority_score>
3.73

> <Reaction_type>
N-oxidation

> <Parent_ID>
1

> <Parent_InChI>
InChI=1S/C26H29NO2/c1-4-25(20-9-6-5-7-10-20)26(22-11-8-12-23(28)19-22)21-13-15-24(16-14-21)29-18-17-27(2)3/h5-16,19,28H,4,17-18H2,1-3H3/b26-25+

> <Parent_SMILES>
C([H])([H])([H])C([H])([H])/C(=C(/C1=C([H])C([H])=C(C([H])=C1[H])OC([H])([H])C([H])([H])N(C([H])([H])[H])C([H])([H])[H])\C2=C([H])C([H])=C([H])C(=C2[H])O[H])/C3=C([H])C([H])=C([H])C([H])=C3[H]

$$$$

  CDK     1104240534

 30 32  0  0  0  0  0  0  0  0999 V2000
    3.5668   -5.4542    0.0000 C   0  0  0  0  0  0  0  0  0  0  0  0
    2.2715   -4.6978    0.0000 C   0  0  0  0  0  0  0  0  0  0  0  0
    2.2789   -3.1978    0.0000 C   0  0  0  0  0  0  0  0  0  0  0  0
    0.9835   -2.4415    0.0000 C   0  0  0  0  0  0  0  0  0  0  0  0
    0.9909   -0.9415    0.0000 C   0  0  0  0  0  0  0  0  0  0  0  0
   -0.3081   -0.1915    0.0000 C   0  0  0  0  0  0  0  0  0  0  0  0
   -0.3226    1.2834    0.0000 C   0  0  0  0  0  0  0  0  0  0  0  0
    1.0019    2.0775    0.0000 C   0  0  0  0  0  0  0  0  0  0  0  0
    2.3009    1.3275    0.0000 C   0  0  0  0  0  0  0  0  0  0  0  0
    2.2754   -0.2166    0.0000 C   0  0  0  0  0  0  0  0  0  0  0  0
    0.9895    3.5775    0.0000 O   0  0  0  0  0  0  0  0  0  0  0  0
   -0.3157    4.3167    0.0000 C   0  0  0  0  0  0  0  0  0  0  0  0
   -0.3281    5.8167    0.0000 C   0  0  0  0  0  0  0  0  0  0  0  0
   -1.6332    6.5559    0.0000 N   0  0  0  0  0  0  0  0  0  0  0  0
   -1.6456    8.0559    0.0000 C   0  0  0  0  0  0  0  0  0  0  0  0
   -2.9260    5.7952    0.0000 C   0  0  0  0  0  0  0  0  0  0  0  0
   -0.3192   -3.1851    0.0000 C   0  0  0  0  0  0  0  0  0  0  0  0
   -0.3268   -4.6859    0.0000 C   0  0  0  0  0  0  0  0  0  0  0  0
   -1.6248   -5.4219    0.0000 C   0  0  0  0  0  0  0  0  0  0  0  0
   -2.9203   -4.6657    0.0000 C   0  0  0  0  0  0  0  0  0  0  0  0
   -2.9177   -3.1735    0.0000 C   0  0  0  0  0  0  0  0  0  0  0  0
   -1.6146   -2.4289    0.0000 C   0  0  0  0  0  0  0  0  0  0  0  0
   -4.2144   -2.4195    0.0000 O   0  0  0  0  0  0  0  0  0  0  0  0
    3.5816   -2.4542    0.0000 C   0  0  0  0  0  0  0  0  0  0  0  0
    3.5816   -0.9542    0.0000 C   0  0  0  0  0  0  0  0  0  0  0  0
    4.8516   -0.2042    0.0000 C   0  0  0  0  0  0  0  0  0  0  0  0
    6.2016   -0.9542    0.0000 C   0  0  0  0  0  0  0  0  0  0  0  0
    6.2016   -2.4542    0.0000 C   0  0  0  0  0  0  0  0  0  0  0  0
    4.8516   -3.2042    0.0000 C   0  0  0  0  0  0  0  0  0  0  0  0
    7.4944   -0.1935    0.0000 O   0  0  0  0  0  0  0  0  0  0  0  0
  1  2  1  0  0  0  0 
  2  3  1  0  0  0  0 
  3  4  2  0  0  0  0 
  4  5  1  0  0  0  0 
  5  6  2  0  0  0  0 
  6  7  1  0  0  0  0 
  7  8  2  0  0  0  0 
  8  9  1  0  0  0  0 
  9 10  2  0  0  0  0 
  5 10  1  0  0  0  0 
  8 11  1  0  0  0  0 
 11 12  1  0  0  0  0 
 12 13  1  0  0  0  0 
 13 14  1  0  0  0  0 
 14 15  1  0  0  0  0 
 14 16  1  0  0  0  0 
  4 17  1  0  0  0  0 
 17 18  2  0  0  0  0 
 18 19  1  0  0  0  0 
 19 20  2  0  0  0  0 
 20 21  1  0  0  0  0 
 21 22  2  0  0  0  0 
 17 22  1  0  0  0  0 
 21 23  1  0  0  0  0 
  3 24  1  0  0  0  0 
 24 25  2  0  0  0  0 
 25 26  1  0  0  0  0 
 26 27  2  0  0  0  0 
 27 28  1  0  0  0  0 
 28 29  2  0  0  0  0 
 24 29  1  0  0  0  0 
 27 30  1  0  0  0  0 
M  END
> <Rank>
4

> <Priority_score>
2.7600000000000002

> <Reaction_type>
aromatic hydroxylation

> <Parent_ID>
1

> <Parent_InChI>
InChI=1S/C26H29NO2/c1-4-25(20-9-6-5-7-10-20)26(22-11-8-12-23(28)19-22)21-13-15-24(16-14-21)29-18-17-27(2)3/h5-16,19,28H,4,17-18H2,1-3H3/b26-25+

> <Parent_SMILES>
C([H])([H])([H])C([H])([H])/C(=C(/C1=C([H])C([H])=C(C([H])=C1[H])OC([H])([H])C([H])([H])N(C([H])([H])[H])C([H])([H])[H])\C2=C([H])C([H])=C([H])C(=C2[H])O[H])/C3=C([H])C([H])=C([H])C([H])=C3[H]

$$$$

  CDK     1104240534

 30 32  0  0  0  0  0  0  0  0999 V2000
   -4.5370   -0.3792    0.0000 C   0  0  0  0  0  0  0  0  0  0  0  0
   -3.2343    0.3644    0.0000 C   0  0  0  0  0  0  0  0  0  0  0  0
   -1.9390   -0.3920    0.0000 C   0  0  0  0  0  0  0  0  0  0  0  0
   -0.6363    0.3516    0.0000 C   0  0  0  0  0  0  0  0  0  0  0  0
    0.6590   -0.4048    0.0000 C   0  0  0  0  0  0  0  0  0  0  0  0
    1.9581    0.3452    0.0000 C   0  0  0  0  0  0  0  0  0  0  0  0
    3.2426   -0.3796    0.0000 C   0  0  0  0  0  0  0  0  0  0  0  0
    3.2681   -1.9237    0.0000 C   0  0  0  0  0  0  0  0  0  0  0  0
    1.9690   -2.6737    0.0000 C   0  0  0  0  0  0  0  0  0  0  0  0
    0.6445   -1.8796    0.0000 C   0  0  0  0  0  0  0  0  0  0  0  0
    4.5733   -2.6630    0.0000 O   0  0  0  0  0  0  0  0  0  0  0  0
    5.8661   -1.9023    0.0000 C   0  0  0  0  0  0  0  0  0  0  0  0
    7.1712   -2.6416    0.0000 C   0  0  0  0  0  0  0  0  0  0  0  0
    8.4641   -1.8809    0.0000 N   0  0  0  0  0  0  0  0  0  0  0  0
    9.7692   -2.6201    0.0000 C   0  0  0  0  0  0  0  0  0  0  0  0
    8.4517   -0.3809    0.0000 C   0  0  0  0  0  0  0  0  0  0  0  0
   -0.6289    1.8516    0.0000 C   0  0  0  0  0  0  0  0  0  0  0  0
    0.6748    2.5952    0.0000 C   0  0  0  0  0  0  0  0  0  0  0  0
    0.6822    4.0952    0.0000 C   0  0  0  0  0  0  0  0  0  0  0  0
   -0.6141    4.8516    0.0000 C   0  0  0  0  0  0  0  0  0  0  0  0
   -1.9178    4.1080    0.0000 C   0  0  0  0  0  0  0  0  0  0  0  0
   -1.9252    2.6080    0.0000 C   0  0  0  0  0  0  0  0  0  0  0  0
   -3.2130    4.8646    0.0000 O   0  0  0  0  0  0  0  0  0  0  0  0
   -0.6068    6.3516    0.0000 O   0  0  0  0  0  0  0  0  0  0  0  0
   -1.9464   -1.8919    0.0000 C   0  0  0  0  0  0  0  0  0  0  0  0
   -0.6501   -2.6483    0.0000 C   0  0  0  0  0  0  0  0  0  0  0  0
   -0.6575   -4.1483    0.0000 C   0  0  0  0  0  0  0  0  0  0  0  0
   -1.9612   -4.8919    0.0000 C   0  0  0  0  0  0  0  0  0  0  0  0
   -3.2574   -4.1355    0.0000 C   0  0  0  0  0  0  0  0  0  0  0  0
   -3.2501   -2.6355    0.0000 C   0  0  0  0  0  0  0  0  0  0  0  0
  1  2  1  0  0  0  0 
  2  3  1  0  0  0  0 
  3  4  2  0  0  0  0 
  4  5  1  0  0  0  0 
  5  6  2  0  0  0  0 
  6  7  1  0  0  0  0 
  7  8  2  0  0  0  0 
  8  9  1  0  0  0  0 
  9 10  2  0  0  0  0 
  5 10  1  0  0  0  0 
  8 11  1  0  0  0  0 
 11 12  1  0  0  0  0 
 12 13  1  0  0  0  0 
 13 14  1  0  0  0  0 
 14 15  1  0  0  0  0 
 14 16  1  0  0  0  0 
  4 17  1  0  0  0  0 
 17 18  2  0  0  0  0 
 18 19  1  0  0  0  0 
 19 20  2  0  0  0  0 
 20 21  1  0  0  0  0 
 21 22  2  0  0  0  0 
 17 22  1  0  0  0  0 
 21 23  1  0  0  0  0 
 20 24  1  0  0  0  0 
  3 25  1  0  0  0  0 
 25 26  2  0  0  0  0 
 26 27  1  0  0  0  0 
 27 28  2  0  0  0  0 
 28 29  1  0  0  0  0 
 29 30  2  0  0  0  0 
 25 30  1  0  0  0  0 
M  END
> <Rank>
5

> <Priority_score>
2.33

> <Reaction_type>
aromatic hydroxylation

> <Parent_ID>
1

> <Parent_InChI>
InChI=1S/C26H29NO2/c1-4-25(20-9-6-5-7-10-20)26(22-11-8-12-23(28)19-22)21-13-15-24(16-14-21)29-18-17-27(2)3/h5-16,19,28H,4,17-18H2,1-3H3/b26-25+

> <Parent_SMILES>
C([H])([H])([H])C([H])([H])/C(=C(/C1=C([H])C([H])=C(C([H])=C1[H])OC([H])([H])C([H])([H])N(C([H])([H])[H])C([H])([H])[H])\C2=C([H])C([H])=C([H])C(=C2[H])O[H])/C3=C([H])C([H])=C([H])C([H])=C3[H]

$$$$

  CDK     1104240534

 30 32  0  0  0  0  0  0  0  0999 V2000
   -2.6058   -5.2620    0.0000 C   0  0  0  0  0  0  0  0  0  0  0  0
   -2.5985   -3.7620    0.0000 C   0  0  0  0  0  0  0  0  0  0  0  0
   -1.2958   -3.0184    0.0000 C   0  0  0  0  0  0  0  0  0  0  0  0
   -1.2884   -1.5184    0.0000 C   0  0  0  0  0  0  0  0  0  0  0  0
    0.0143   -0.7748    0.0000 C   0  0  0  0  0  0  0  0  0  0  0  0
    0.0143    0.7252    0.0000 C   0  0  0  0  0  0  0  0  0  0  0  0
    1.2843    1.4752    0.0000 C   0  0  0  0  0  0  0  0  0  0  0  0
    2.6343    0.7252    0.0000 C   0  0  0  0  0  0  0  0  0  0  0  0
    2.6343   -0.7748    0.0000 C   0  0  0  0  0  0  0  0  0  0  0  0
    1.2843   -1.5248    0.0000 C   0  0  0  0  0  0  0  0  0  0  0  0
    3.9272    1.4859    0.0000 O   0  0  0  0  0  0  0  0  0  0  0  0
    3.9148    2.9858    0.0000 C   0  0  0  0  0  0  0  0  0  0  0  0
    5.2076    3.7465    0.0000 C   0  0  0  0  0  0  0  0  0  0  0  0
    5.1952    5.2465    0.0000 N   0  0  0  0  0  0  0  0  0  0  0  0
    6.4880    6.0072    0.0000 C   0  0  0  0  0  0  0  0  0  0  0  0
    3.8900    5.9857    0.0000 C   0  0  0  0  0  0  0  0  0  0  0  0
   -2.5837   -0.7620    0.0000 C   0  0  0  0  0  0  0  0  0  0  0  0
   -3.8873   -1.5058    0.0000 C   0  0  0  0  0  0  0  0  0  0  0  0
   -5.1737   -0.7497    0.0000 C   0  0  0  0  0  0  0  0  0  0  0  0
   -5.1665    0.7503    0.0000 C   0  0  0  0  0  0  0  0  0  0  0  0
   -3.8730    1.4941    0.0000 C   0  0  0  0  0  0  0  0  0  0  0  0
   -2.5766    0.7380    0.0000 C   0  0  0  0  0  0  0  0  0  0  0  0
   -3.8683    2.9941    0.0000 O   0  0  0  0  0  0  0  0  0  0  0  0
   -0.0004   -3.7748    0.0000 C   0  0  0  0  0  0  0  0  0  0  0  0
    1.3028   -3.0303    0.0000 C   0  0  0  0  0  0  0  0  0  0  0  0
    2.5981   -3.7867    0.0000 C   0  0  0  0  0  0  0  0  0  0  0  0
    2.5902   -5.2875    0.0000 C   0  0  0  0  0  0  0  0  0  0  0  0
    1.2870   -6.0320    0.0000 C   0  0  0  0  0  0  0  0  0  0  0  0
   -0.0083   -5.2756    0.0000 C   0  0  0  0  0  0  0  0  0  0  0  0
   -3.8938   -3.0056    0.0000 O   0  0  0  0  0  0  0  0  0  0  0  0
  1  2  1  0  0  0  0 
  2  3  1  0  0  0  0 
  3  4  2  0  0  0  0 
  4  5  1  0  0  0  0 
  5  6  2  0  0  0  0 
  6  7  1  0  0  0  0 
  7  8  2  0  0  0  0 
  8  9  1  0  0  0  0 
  9 10  2  0  0  0  0 
  5 10  1  0  0  0  0 
  8 11  1  0  0  0  0 
 11 12  1  0  0  0  0 
 12 13  1  0  0  0  0 
 13 14  1  0  0  0  0 
 14 15  1  0  0  0  0 
 14 16  1  0  0  0  0 
  4 17  1  0  0  0  0 
 17 18  2  0  0  0  0 
 18 19  1  0  0  0  0 
 19 20  2  0  0  0  0 
 20 21  1  0  0  0  0 
 21 22  2  0  0  0  0 
 17 22  1  0  0  0  0 
 21 23  1  0  0  0  0 
  3 24  1  0  0  0  0 
 24 25  2  0  0  0  0 
 25 26  1  0  0  0  0 
 26 27  2  0  0  0  0 
 27 28  1  0  0  0  0 
 28 29  2  0  0  0  0 
 24 29  1  0  0  0  0 
  2 30  1  0  0  0  0 
M  END
> <Rank>
6

> <Priority_score>
1.81

> <Reaction_type>
aliphatic hydroxylation

> <Parent_ID>
1

> <Parent_InChI>
InChI=1S/C26H29NO2/c1-4-25(20-9-6-5-7-10-20)26(22-11-8-12-23(28)19-22)21-13-15-24(16-14-21)29-18-17-27(2)3/h5-16,19,28H,4,17-18H2,1-3H3/b26-25+

> <Parent_SMILES>
C([H])([H])([H])C([H])([H])/C(=C(/C1=C([H])C([H])=C(C([H])=C1[H])OC([H])([H])C([H])([H])N(C([H])([H])[H])C([H])([H])[H])\C2=C([H])C([H])=C([H])C(=C2[H])O[H])/C3=C([H])C([H])=C([H])C([H])=C3[H]

$$$$

  CDK     1104240534

 29 31  0  0  0  0  0  0  0  0999 V2000
   -5.5206    0.1887    0.0000 C   0  0  0  0  0  0  0  0  0  0  0  0
   -4.2179    0.9323    0.0000 C   0  0  0  0  0  0  0  0  0  0  0  0
   -2.9225    0.1759    0.0000 C   0  0  0  0  0  0  0  0  0  0  0  0
   -1.6198    0.9195    0.0000 C   0  0  0  0  0  0  0  0  0  0  0  0
   -0.3245    0.1631    0.0000 C   0  0  0  0  0  0  0  0  0  0  0  0
    0.9745    0.9131    0.0000 C   0  0  0  0  0  0  0  0  0  0  0  0
    2.2591    0.1882    0.0000 C   0  0  0  0  0  0  0  0  0  0  0  0
    2.2845   -1.3559    0.0000 C   0  0  0  0  0  0  0  0  0  0  0  0
    0.9855   -2.1059    0.0000 C   0  0  0  0  0  0  0  0  0  0  0  0
   -0.3390   -1.3118    0.0000 C   0  0  0  0  0  0  0  0  0  0  0  0
    3.5897   -2.0951    0.0000 O   0  0  0  0  0  0  0  0  0  0  0  0
    4.8825   -1.3345    0.0000 C   0  0  0  0  0  0  0  0  0  0  0  0
    6.1877   -2.0737    0.0000 C   0  0  0  0  0  0  0  0  0  0  0  0
    7.4805   -1.3130    0.0000 N   0  0  0  0  0  0  0  0  0  0  0  0
    7.4681    0.1869    0.0000 C   0  0  0  0  0  0  0  0  0  0  0  0
    8.7857   -2.0523    0.0000 C   0  0  0  0  0  0  0  0  0  0  0  0
   -1.6125    2.4195    0.0000 C   0  0  0  0  0  0  0  0  0  0  0  0
   -2.9084    3.1765    0.0000 C   0  0  0  0  0  0  0  0  0  0  0  0
   -2.8968    4.6686    0.0000 C   0  0  0  0  0  0  0  0  0  0  0  0
   -1.5942    5.4124    0.0000 C   0  0  0  0  0  0  0  0  0  0  0  0
   -0.3032    4.6641    0.0000 C   0  0  0  0  0  0  0  0  0  0  0  0
   -0.3099    3.1633    0.0000 C   0  0  0  0  0  0  0  0  0  0  0  0
    0.9982    5.4101    0.0000 O   0  0  0  0  0  0  0  0  0  0  0  0
   -2.9299   -1.3241    0.0000 C   0  0  0  0  0  0  0  0  0  0  0  0
   -1.6336   -2.0805    0.0000 C   0  0  0  0  0  0  0  0  0  0  0  0
   -1.6410   -3.5805    0.0000 C   0  0  0  0  0  0  0  0  0  0  0  0
   -2.9447   -4.3241    0.0000 C   0  0  0  0  0  0  0  0  0  0  0  0
   -4.2410   -3.5677    0.0000 C   0  0  0  0  0  0  0  0  0  0  0  0
   -4.2336   -2.0677    0.0000 C   0  0  0  0  0  0  0  0  0  0  0  0
  1  2  1  0  0  0  0 
  2  3  1  0  0  0  0 
  3  4  2  0  0  0  0 
  4  5  1  0  0  0  0 
  5  6  2  0  0  0  0 
  6  7  1  0  0  0  0 
  7  8  2  0  0  0  0 
  8  9  1  0  0  0  0 
  9 10  2  0  0  0  0 
  5 10  1  0  0  0  0 
  8 11  1  0  0  0  0 
 11 12  1  0  0  0  0 
 12 13  1  0  0  0  0 
 13 14  1  0  0  0  0 
 14 15  2  0  0  0  0 
 14 16  1  0  0  0  0 
  4 17  1  0  0  0  0 
 17 18  2  0  0  0  0 
 18 19  1  0  0  0  0 
 19 20  2  0  0  0  0 
 20 21  1  0  0  0  0 
 21 22  2  0  0  0  0 
 17 22  1  0  0  0  0 
 21 23  1  0  0  0  0 
  3 24  1  0  0  0  0 
 24 25  2  0  0  0  0 
 25 26  1  0  0  0  0 
 26 27  2  0  0  0  0 
 27 28  1  0  0  0  0 
 28 29  2  0  0  0  0 
 24 29  1  0  0  0  0 
M  CHG  1  14   1
M  END
> <Rank>
7

> <Priority_score>
0.746

> <Reaction_type>
dehydration of N-C bond

> <Parent_ID>
1

> <Parent_InChI>
InChI=1S/C26H29NO2/c1-4-25(20-9-6-5-7-10-20)26(22-11-8-12-23(28)19-22)21-13-15-24(16-14-21)29-18-17-27(2)3/h5-16,19,28H,4,17-18H2,1-3H3/b26-25+

> <Parent_SMILES>
C([H])([H])([H])C([H])([H])/C(=C(/C1=C([H])C([H])=C(C([H])=C1[H])OC([H])([H])C([H])([H])N(C([H])([H])[H])C([H])([H])[H])\C2=C([H])C([H])=C([H])C(=C2[H])O[H])/C3=C([H])C([H])=C([H])C([H])=C3[H]

$$$$

  CDK     1104240534

 30 32  0  0  0  0  0  0  0  0999 V2000
   -1.2945   -5.2620    0.0000 C   0  0  0  0  0  0  0  0  0  0  0  0
   -1.2871   -3.7620    0.0000 C   0  0  0  0  0  0  0  0  0  0  0  0
    0.0156   -3.0184    0.0000 C   0  0  0  0  0  0  0  0  0  0  0  0
    0.0230   -1.5184    0.0000 C   0  0  0  0  0  0  0  0  0  0  0  0
    1.3257   -0.7748    0.0000 C   0  0  0  0  0  0  0  0  0  0  0  0
    1.3257    0.7252    0.0000 C   0  0  0  0  0  0  0  0  0  0  0  0
    2.5957    1.4752    0.0000 C   0  0  0  0  0  0  0  0  0  0  0  0
    3.9457    0.7252    0.0000 C   0  0  0  0  0  0  0  0  0  0  0  0
    3.9457   -0.7748    0.0000 C   0  0  0  0  0  0  0  0  0  0  0  0
    2.5957   -1.5248    0.0000 C   0  0  0  0  0  0  0  0  0  0  0  0
    5.2385    1.4859    0.0000 O   0  0  0  0  0  0  0  0  0  0  0  0
    5.2262    2.9858    0.0000 C   0  0  0  0  0  0  0  0  0  0  0  0
    6.5190    3.7465    0.0000 C   0  0  0  0  0  0  0  0  0  0  0  0
    6.5066    5.2465    0.0000 N   0  0  0  0  0  0  0  0  0  0  0  0
    7.7994    6.0072    0.0000 C   0  0  0  0  0  0  0  0  0  0  0  0
    5.2014    5.9857    0.0000 C   0  0  0  0  0  0  0  0  0  0  0  0
   -1.2723   -0.7620    0.0000 C   0  0  0  0  0  0  0  0  0  0  0  0
   -2.5751   -1.5054    0.0000 C   0  0  0  0  0  0  0  0  0  0  0  0
   -3.8708   -0.7480    0.0000 C   0  0  0  0  0  0  0  0  0  0  0  0
   -5.1737   -1.4914    0.0000 O   0  0  0  0  0  0  0  0  0  0  0  0
   -3.8637    0.7528    0.0000 C   0  0  0  0  0  0  0  0  0  0  0  0
   -2.5609    1.4962    0.0000 C   0  0  0  0  0  0  0  0  0  0  0  0
   -1.2652    0.7388    0.0000 C   0  0  0  0  0  0  0  0  0  0  0  0
    0.0377    1.4822    0.0000 O   0  0  0  0  0  0  0  0  0  0  0  0
    1.3110   -3.7748    0.0000 C   0  0  0  0  0  0  0  0  0  0  0  0
    2.6142   -3.0303    0.0000 C   0  0  0  0  0  0  0  0  0  0  0  0
    3.9095   -3.7867    0.0000 C   0  0  0  0  0  0  0  0  0  0  0  0
    3.9016   -5.2875    0.0000 C   0  0  0  0  0  0  0  0  0  0  0  0
    2.5984   -6.0320    0.0000 C   0  0  0  0  0  0  0  0  0  0  0  0
    1.3031   -5.2756    0.0000 C   0  0  0  0  0  0  0  0  0  0  0  0
  1  2  1  0  0  0  0 
  2  3  1  0  0  0  0 
  3  4  2  0  0  0  0 
  4  5  1  0  0  0  0 
  5  6  2  0  0  0  0 
  6  7  1  0  0  0  0 
  7  8  2  0  0  0  0 
  8  9  1  0  0  0  0 
  9 10  2  0  0  0  0 
  5 10  1  0  0  0  0 
  8 11  1  0  0  0  0 
 11 12  1  0  0  0  0 
 12 13  1  0  0  0  0 
 13 14  1  0  0  0  0 
 14 15  1  0  0  0  0 
 14 16  1  0  0  0  0 
  4 17  1  0  0  0  0 
 17 18  2  0  0  0  0 
 18 19  1  0  0  0  0 
 19 20  2  0  0  0  0 
 19 21  1  0  0  0  0 
 21 22  2  0  0  0  0 
 22 23  1  0  0  0  0 
 17 23  1  0  0  0  0 
 23 24  2  0  0  0  0 
  3 25  1  0  0  0  0 
 25 26  2  0  0  0  0 
 26 27  1  0  0  0  0 
 27 28  2  0  0  0  0 
 28 29  1  0  0  0  0 
 29 30  2  0  0  0  0 
 25 30  1  0  0  0  0 
M  END
> <Rank>
8

> <Priority_score>
0.466

> <Reaction_type>
oxidation of 4-substituted phenol to quinone

> <Parent_ID>
1

> <Parent_InChI>
InChI=1S/C26H29NO2/c1-4-25(20-9-6-5-7-10-20)26(22-11-8-12-23(28)19-22)21-13-15-24(16-14-21)29-18-17-27(2)3/h5-16,19,28H,4,17-18H2,1-3H3/b26-25+

> <Parent_SMILES>
C([H])([H])([H])C([H])([H])/C(=C(/C1=C([H])C([H])=C(C([H])=C1[H])OC([H])([H])C([H])([H])N(C([H])([H])[H])C([H])([H])[H])\C2=C([H])C([H])=C([H])C(=C2[H])O[H])/C3=C([H])C([H])=C([H])C([H])=C3[H]

$$$$

  CDK     1104240534

 30 32  0  0  0  0  0  0  0  0999 V2000
    7.2347    6.7774    0.0000 C   0  0  0  0  0  0  0  0  0  0  0  0
    6.4847    5.4784    0.0000 C   0  0  0  0  0  0  0  0  0  0  0  0
    4.9847    5.4784    0.0000 C   0  0  0  0  0  0  0  0  0  0  0  0
    4.2347    4.1793    0.0000 C   0  0  0  0  0  0  0  0  0  0  0  0
    2.7338    4.1798    0.0000 C   0  0  0  0  0  0  0  0  0  0  0  0
    1.9838    2.8808    0.0000 C   0  0  0  0  0  0  0  0  0  0  0  0
    2.7347    1.5812    0.0000 C   0  0  0  0  0  0  0  0  0  0  0  0
    4.2355    1.5808    0.0000 C   0  0  0  0  0  0  0  0  0  0  0  0
    4.9855    2.8798    0.0000 C   0  0  0  0  0  0  0  0  0  0  0  0
    3.7547    7.6088    0.0000 C   0  0  0  0  0  0  0  0  0  0  0  0
    2.2547    7.6088    0.0000 C   0  0  0  0  0  0  0  0  0  0  0  0
    1.5111    6.3061    0.0000 C   0  0  0  0  0  0  0  0  0  0  0  0
    0.0363    6.2843    0.0000 C   0  0  0  0  0  0  0  0  0  0  0  0
   -0.7643    7.6049    0.0000 C   0  0  0  0  0  0  0  0  0  0  0  0
   -0.0207    8.9076    0.0000 C   0  0  0  0  0  0  0  0  0  0  0  0
    1.5235    8.8897    0.0000 C   0  0  0  0  0  0  0  0  0  0  0  0
   -2.2642    7.5851    0.0000 O   0  0  0  0  0  0  0  0  0  0  0  0
   -3.0312    8.8742    0.0000 C   0  0  0  0  0  0  0  0  0  0  0  0
   -4.5311    8.8544    0.0000 C   0  0  0  0  0  0  0  0  0  0  0  0
   -5.2982   10.1435    0.0000 N   0  0  0  0  0  0  0  0  0  0  0  0
   -6.7980   10.1237    0.0000 C   0  0  0  0  0  0  0  0  0  0  0  0
   -4.5653   11.4523    0.0000 C   0  0  0  0  0  0  0  0  0  0  0  0
    5.1642    8.1218    0.0000 C   0  0  0  0  0  0  0  0  0  0  0  0
    5.4251    9.5998    0.0000 C   0  0  0  0  0  0  0  0  0  0  0  0
    6.8287   10.1061    0.0000 C   0  0  0  0  0  0  0  0  0  0  0  0
    7.9779    9.1421    0.0000 C   0  0  0  0  0  0  0  0  0  0  0  0
    7.7235    7.6718    0.0000 C   0  0  0  0  0  0  0  0  0  0  0  0
    6.3134    7.1578    0.0000 C   0  0  0  0  0  0  0  0  0  0  0  0
    8.8743    6.7097    0.0000 O   0  0  0  0  0  0  0  0  0  0  0  0
    3.4942    9.0860    0.0000 O   0  0  0  0  0  0  0  0  0  0  0  0
  1  2  1  4  0  0  0 
  2  3  2  0  0  0  0 
  3  4  1  0  0  0  0 
  4  5  2  0  0  0  0 
  5  6  1  0  0  0  0 
  6  7  2  0  0  0  0 
  7  8  1  0  0  0  0 
  8  9  2  0  0  0  0 
  4  9  1  0  0  0  0 
  3 10  1  0  0  0  0 
 10 11  1  0  0  0  0 
 11 12  2  0  0  0  0 
 12 13  1  0  0  0  0 
 13 14  2  0  0  0  0 
 14 15  1  0  0  0  0 
 15 16  2  0  0  0  0 
 11 16  1  0  0  0  0 
 14 17  1  0  0  0  0 
 17 18  1  0  0  0  0 
 18 19  1  0  0  0  0 
 19 20  1  0  0  0  0 
 20 21  1  0  0  0  0 
 20 22  1  0  0  0  0 
 10 23  1  0  0  0  0 
 23 24  2  0  0  0  0 
 24 25  1  0  0  0  0 
 25 26  2  0  0  0  0 
 26 27  1  0  0  0  0 
 27 28  2  0  0  0  0 
 23 28  1  0  0  0  0 
 27 29  1  0  0  0  0 
 10 30  1  0  0  0  0 
M  END
> <Rank>
9

> <Priority_score>
0.362

> <Reaction_type>
aliphatic hydroxylation with allylic rearrangement 1

> <Parent_ID>
1

> <Parent_InChI>
InChI=1S/C26H29NO2/c1-4-25(20-9-6-5-7-10-20)26(22-11-8-12-23(28)19-22)21-13-15-24(16-14-21)29-18-17-27(2)3/h5-16,19,28H,4,17-18H2,1-3H3/b26-25+

> <Parent_SMILES>
C([H])([H])([H])C([H])([H])/C(=C(/C1=C([H])C([H])=C(C([H])=C1[H])OC([H])([H])C([H])([H])N(C([H])([H])[H])C([H])([H])[H])\C2=C([H])C([H])=C([H])C(=C2[H])O[H])/C3=C([H])C([H])=C([H])C([H])=C3[H]

$$$$

  CDK     1104240534

 29 31  0  0  0  0  0  0  0  0999 V2000
   -5.5206    0.1887    0.0000 C   0  0  0  0  0  0  0  0  0  0  0  0
   -4.2179    0.9323    0.0000 C   0  0  0  0  0  0  0  0  0  0  0  0
   -2.9225    0.1759    0.0000 C   0  0  0  0  0  0  0  0  0  0  0  0
   -1.6198    0.9195    0.0000 C   0  0  0  0  0  0  0  0  0  0  0  0
   -0.3245    0.1631    0.0000 C   0  0  0  0  0  0  0  0  0  0  0  0
    0.9745    0.9131    0.0000 C   0  0  0  0  0  0  0  0  0  0  0  0
    2.2591    0.1882    0.0000 C   0  0  0  0  0  0  0  0  0  0  0  0
    2.2845   -1.3559    0.0000 C   0  0  0  0  0  0  0  0  0  0  0  0
    0.9855   -2.1059    0.0000 C   0  0  0  0  0  0  0  0  0  0  0  0
   -0.3390   -1.3118    0.0000 C   0  0  0  0  0  0  0  0  0  0  0  0
    3.5897   -2.0951    0.0000 O   0  0  0  0  0  0  0  0  0  0  0  0
    4.8825   -1.3345    0.0000 C   0  0  0  0  0  0  0  0  0  0  0  0
    6.1877   -2.0737    0.0000 C   0  0  0  0  0  0  0  0  0  0  0  0
    7.4805   -1.3130    0.0000 N   0  0  0  0  0  0  0  0  0  0  0  0
    8.7857   -2.0523    0.0000 C   0  0  0  0  0  0  0  0  0  0  0  0
    7.4681    0.1869    0.0000 C   0  0  0  0  0  0  0  0  0  0  0  0
   -1.6125    2.4195    0.0000 C   0  0  0  0  0  0  0  0  0  0  0  0
   -2.9084    3.1765    0.0000 C   0  0  0  0  0  0  0  0  0  0  0  0
   -2.8968    4.6686    0.0000 C   0  0  0  0  0  0  0  0  0  0  0  0
   -1.5942    5.4124    0.0000 C   0  0  0  0  0  0  0  0  0  0  0  0
   -0.3032    4.6641    0.0000 C   0  0  0  0  0  0  0  0  0  0  0  0
   -0.3099    3.1633    0.0000 C   0  0  0  0  0  0  0  0  0  0  0  0
    0.9982    5.4101    0.0000 O   0  0  0  0  0  0  0  0  0  0  0  0
   -2.9299   -1.3241    0.0000 C   0  0  0  0  0  0  0  0  0  0  0  0
   -1.6336   -2.0805    0.0000 C   0  0  0  0  0  0  0  0  0  0  0  0
   -1.6410   -3.5805    0.0000 C   0  0  0  0  0  0  0  0  0  0  0  0
   -2.9447   -4.3241    0.0000 C   0  0  0  0  0  0  0  0  0  0  0  0
   -4.2410   -3.5677    0.0000 C   0  0  0  0  0  0  0  0  0  0  0  0
   -4.2336   -2.0677    0.0000 C   0  0  0  0  0  0  0  0  0  0  0  0
  1  2  2  0  0  0  0 
  2  3  1  0  0  0  0 
  3  4  2  0  0  0  0 
  4  5  1  0  0  0  0 
  5  6  2  0  0  0  0 
  6  7  1  0  0  0  0 
  7  8  2  0  0  0  0 
  8  9  1  0  0  0  0 
  9 10  2  0  0  0  0 
  5 10  1  0  0  0  0 
  8 11  1  0  0  0  0 
 11 12  1  0  0  0  0 
 12 13  1  0  0  0  0 
 13 14  1  0  0  0  0 
 14 15  1  0  0  0  0 
 14 16  1  0  0  0  0 
  4 17  1  0  0  0  0 
 17 18  2  0  0  0  0 
 18 19  1  0  0  0  0 
 19 20  2  0  0  0  0 
 20 21  1  0  0  0  0 
 21 22  2  0  0  0  0 
 17 22  1  0  0  0  0 
 21 23  1  0  0  0  0 
  3 24  1  0  0  0  0 
 24 25  2  0  0  0  0 
 25 26  1  0  0  0  0 
 26 27  2  0  0  0  0 
 27 28  1  0  0  0  0 
 28 29  2  0  0  0  0 
 24 29  1  0  0  0  0 
M  END
> <Rank>
9

> <Priority_score>
0.362

> <Reaction_type>
alkyl dehydrogenation

> <Parent_ID>
1

> <Parent_InChI>
InChI=1S/C26H29NO2/c1-4-25(20-9-6-5-7-10-20)26(22-11-8-12-23(28)19-22)21-13-15-24(16-14-21)29-18-17-27(2)3/h5-16,19,28H,4,17-18H2,1-3H3/b26-25+

> <Parent_SMILES>
C([H])([H])([H])C([H])([H])/C(=C(/C1=C([H])C([H])=C(C([H])=C1[H])OC([H])([H])C([H])([H])N(C([H])([H])[H])C([H])([H])[H])\C2=C([H])C([H])=C([H])C(=C2[H])O[H])/C3=C([H])C([H])=C([H])C([H])=C3[H]

$$$$
