
  CDK     1104240402

 19 21  0  0  0  0  0  0  0  0999 V2000
    3.6390    9.5477    0.0000 C   0  0  0  0  0  0  0  0  0  0  0  0
    2.3397    8.7981    0.0000 C   0  0  0  0  0  0  0  0  0  0  0  0
    2.3392    7.2981    0.0000 C   0  0  0  0  0  0  0  0  0  0  0  0
    3.6380    6.5477    0.0000 O   0  0  0  0  0  0  0  0  0  0  0  0
    1.0400    6.5485    0.0000 N   0  0  0  0  0  0  0  0  0  0  0  0
    1.0395    5.0485    0.0000 C   0  0  0  0  0  0  0  0  0  0  0  0
   -0.2598    4.2989    0.0000 C   0  0  2  0  0  0  0  0  0  0  0  0
   -1.7606    4.2996    0.0000 C   0  0  0  0  0  0  0  0  0  0  0  0
   -1.0100    3.0000    0.0000 C   0  0  1  0  0  0  0  0  0  0  0  0
   -1.0100    1.5000    0.0000 C   0  0  0  0  0  0  0  0  0  0  0  0
   -2.3100    0.7500    0.0000 C   0  0  0  0  0  0  0  0  0  0  0  0
   -2.3100   -0.7500    0.0000 C   0  0  0  0  0  0  0  0  0  0  0  0
   -1.0100   -1.5000    0.0000 C   0  0  0  0  0  0  0  0  0  0  0  0
    0.2900   -0.7500    0.0000 C   0  0  0  0  0  0  0  0  0  0  0  0
    0.2900    0.7500    0.0000 C   0  0  0  0  0  0  0  0  0  0  0  0
    1.7200    1.2100    0.0000 C   0  0  0  0  0  0  0  0  0  0  0  0
    2.6000    0.0000    0.0000 C   0  0  0  0  0  0  0  0  0  0  0  0
    1.7200   -1.2100    0.0000 O   0  0  0  0  0  0  0  0  0  0  0  0
   -1.0100   -3.0000    0.0000 O   0  0  0  0  0  0  0  0  0  0  0  0
  1  2  1  0  0  0  0 
  2  3  1  0  0  0  0 
  3  4  2  0  0  0  0 
  3  5  1  0  0  0  0 
  5  6  1  0  0  0  0 
  7  6  1  1  0  0  0 
  7  8  1  0  0  0  0 
  8  9  1  0  0  0  0 
  7  9  1  0  0  0  0 
  9 10  1  6  0  0  0 
 10 11  2  0  0  0  0 
 11 12  1  0  0  0  0 
 12 13  2  0  0  0  0 
 13 14  1  0  0  0  0 
 14 15  2  0  0  0  0 
 10 15  1  0  0  0  0 
 15 16  1  0  0  0  0 
 16 17  1  0  0  0  0 
 17 18  1  0  0  0  0 
 14 18  1  0  0  0  0 
 13 19  1  0  0  0  0 
M  END
> <Rank>
1

> <Priority_score>
1.6900000000000002

> <Reaction_type>
aromatic hydroxylation

> <Parent_ID>
1

> <Parent_InChI>
InChI=1S/C15H19NO2/c1-2-15(17)16-9-10-8-13(10)11-4-3-5-14-12(11)6-7-18-14/h3-5,10,13H,2,6-9H2,1H3,(H,16,17)/t10-,13+/m0/s1

> <Parent_SMILES>
C([H])([H])([H])C([H])([H])C(=O)N([H])C([H])([H])[C@]1([H])C([H])([H])[C@@]1([H])C2=C([H])C([H])=C([H])C3=C2C([H])([H])C([H])([H])O3

$$$$

  CDK     1104240402

 19 21  0  0  0  0  0  0  0  0999 V2000
    3.6390    9.5477    0.0000 C   0  0  0  0  0  0  0  0  0  0  0  0
    2.3397    8.7981    0.0000 C   0  0  0  0  0  0  0  0  0  0  0  0
    2.3392    7.2981    0.0000 C   0  0  0  0  0  0  0  0  0  0  0  0
    3.6380    6.5477    0.0000 O   0  0  0  0  0  0  0  0  0  0  0  0
    1.0400    6.5485    0.0000 N   0  0  0  0  0  0  0  0  0  0  0  0
    1.0395    5.0485    0.0000 C   0  0  0  0  0  0  0  0  0  0  0  0
   -0.2598    4.2989    0.0000 C   0  0  2  0  0  0  0  0  0  0  0  0
   -1.7606    4.2996    0.0000 C   0  0  0  0  0  0  0  0  0  0  0  0
   -1.0100    3.0000    0.0000 C   0  0  1  0  0  0  0  0  0  0  0  0
   -1.0100    1.5000    0.0000 C   0  0  0  0  0  0  0  0  0  0  0  0
   -2.3100    0.7500    0.0000 C   0  0  0  0  0  0  0  0  0  0  0  0
   -2.3100   -0.7500    0.0000 C   0  0  0  0  0  0  0  0  0  0  0  0
   -1.0100   -1.5000    0.0000 C   0  0  0  0  0  0  0  0  0  0  0  0
    0.2900   -0.7500    0.0000 C   0  0  0  0  0  0  0  0  0  0  0  0
    0.2900    0.7500    0.0000 C   0  0  0  0  0  0  0  0  0  0  0  0
    1.7200    1.2100    0.0000 C   0  0  0  0  0  0  0  0  0  0  0  0
    2.6000    0.0000    0.0000 C   0  0  0  0  0  0  0  0  0  0  0  0
    1.7200   -1.2100    0.0000 O   0  0  0  0  0  0  0  0  0  0  0  0
    1.0409    9.5485    0.0000 O   0  0  0  0  0  0  0  0  0  0  0  0
  1  2  1  0  0  0  0 
  2  3  1  0  0  0  0 
  3  4  2  0  0  0  0 
  3  5  1  0  0  0  0 
  5  6  1  0  0  0  0 
  7  6  1  1  0  0  0 
  7  8  1  0  0  0  0 
  8  9  1  0  0  0  0 
  7  9  1  0  0  0  0 
  9 10  1  6  0  0  0 
 10 11  2  0  0  0  0 
 11 12  1  0  0  0  0 
 12 13  2  0  0  0  0 
 13 14  1  0  0  0  0 
 14 15  2  0  0  0  0 
 10 15  1  0  0  0  0 
 15 16  1  0  0  0  0 
 16 17  1  0  0  0  0 
 17 18  1  0  0  0  0 
 14 18  1  0  0  0  0 
  2 19  1  0  0  0  0 
M  END
> <Rank>
2

> <Priority_score>
1.57

> <Reaction_type>
aliphatic hydroxylation

> <Parent_ID>
1

> <Parent_InChI>
InChI=1S/C15H19NO2/c1-2-15(17)16-9-10-8-13(10)11-4-3-5-14-12(11)6-7-18-14/h3-5,10,13H,2,6-9H2,1H3,(H,16,17)/t10-,13+/m0/s1

> <Parent_SMILES>
C([H])([H])([H])C([H])([H])C(=O)N([H])C([H])([H])[C@]1([H])C([H])([H])[C@@]1([H])C2=C([H])C([H])=C([H])C3=C2C([H])([H])C([H])([H])O3

$$$$

  CDK     1104240402

 19 21  0  0  0  0  0  0  0  0999 V2000
    3.6390    9.5477    0.0000 C   0  0  0  0  0  0  0  0  0  0  0  0
    2.3397    8.7981    0.0000 C   0  0  0  0  0  0  0  0  0  0  0  0
    2.3392    7.2981    0.0000 C   0  0  0  0  0  0  0  0  0  0  0  0
    3.6380    6.5477    0.0000 O   0  0  0  0  0  0  0  0  0  0  0  0
    1.0400    6.5485    0.0000 N   0  0  0  0  0  0  0  0  0  0  0  0
    1.0395    5.0485    0.0000 C   0  0  0  0  0  0  0  0  0  0  0  0
   -0.2598    4.2989    0.0000 C   0  0  2  0  0  0  0  0  0  0  0  0
   -1.7606    4.2996    0.0000 C   0  0  0  0  0  0  0  0  0  0  0  0
   -1.0100    3.0000    0.0000 C   0  0  1  0  0  0  0  0  0  0  0  0
   -1.0100    1.5000    0.0000 C   0  0  0  0  0  0  0  0  0  0  0  0
   -2.3100    0.7500    0.0000 C   0  0  0  0  0  0  0  0  0  0  0  0
   -2.3100   -0.7500    0.0000 C   0  0  0  0  0  0  0  0  0  0  0  0
   -1.0100   -1.5000    0.0000 C   0  0  0  0  0  0  0  0  0  0  0  0
    0.2900   -0.7500    0.0000 C   0  0  0  0  0  0  0  0  0  0  0  0
    0.2900    0.7500    0.0000 C   0  0  0  0  0  0  0  0  0  0  0  0
    1.7200    1.2100    0.0000 C   0  0  0  0  0  0  0  0  0  0  0  0
    2.6000    0.0000    0.0000 C   0  0  0  0  0  0  0  0  0  0  0  0
    4.1000   -0.0000    0.0000 O   0  0  0  0  0  0  0  0  0  0  0  0
    1.7200   -1.2100    0.0000 O   0  0  0  0  0  0  0  0  0  0  0  0
  1  2  1  0  0  0  0 
  2  3  1  0  0  0  0 
  3  4  2  0  0  0  0 
  3  5  1  0  0  0  0 
  5  6  1  0  0  0  0 
  7  6  1  1  0  0  0 
  7  8  1  0  0  0  0 
  8  9  1  0  0  0  0 
  7  9  1  0  0  0  0 
  9 10  1  6  0  0  0 
 10 11  2  0  0  0  0 
 11 12  1  0  0  0  0 
 12 13  2  0  0  0  0 
 13 14  1  0  0  0  0 
 14 15  2  0  0  0  0 
 10 15  1  0  0  0  0 
 15 16  1  0  0  0  0 
 16 17  1  0  0  0  0 
 17 18  1  0  0  0  0 
 17 19  1  0  0  0  0 
 14 19  1  0  0  0  0 
M  END
> <Rank>
3

> <Priority_score>
1.33

> <Reaction_type>
aliphatic hydroxylation

> <Parent_ID>
1

> <Parent_InChI>
InChI=1S/C15H19NO2/c1-2-15(17)16-9-10-8-13(10)11-4-3-5-14-12(11)6-7-18-14/h3-5,10,13H,2,6-9H2,1H3,(H,16,17)/t10-,13+/m0/s1

> <Parent_SMILES>
C([H])([H])([H])C([H])([H])C(=O)N([H])C([H])([H])[C@]1([H])C([H])([H])[C@@]1([H])C2=C([H])C([H])=C([H])C3=C2C([H])([H])C([H])([H])O3

$$$$

  CDK     1104240402

 19 20  0  0  0  0  0  0  0  0999 V2000
   -7.2451    0.7110    0.0000 C   0  0  0  0  0  0  0  0  0  0  0  0
   -5.9462   -0.0392    0.0000 C   0  0  0  0  0  0  0  0  0  0  0  0
   -4.6470    0.7106    0.0000 C   0  0  0  0  0  0  0  0  0  0  0  0
   -4.6468    2.2106    0.0000 O   0  0  0  0  0  0  0  0  0  0  0  0
   -3.3481   -0.0396    0.0000 N   0  0  0  0  0  0  0  0  0  0  0  0
   -2.0489    0.7102    0.0000 C   0  0  0  0  0  0  0  0  0  0  0  0
   -0.7500   -0.0400    0.0000 C   0  0  2  0  0  0  0  0  0  0  0  0
    0.0000   -1.3400    0.0000 C   0  0  0  0  0  0  0  0  0  0  0  0
    0.7500   -0.0400    0.0000 C   0  0  1  0  0  0  0  0  0  0  0  0
    2.0489    0.7102    0.0000 C   0  0  0  0  0  0  0  0  0  0  0  0
    2.0489    2.2110    0.0000 C   0  0  0  0  0  0  0  0  0  0  0  0
    3.3482    2.9623    0.0000 C   0  0  0  0  0  0  0  0  0  0  0  0
    4.6475    2.2127    0.0000 C   0  0  0  0  0  0  0  0  0  0  0  0
    4.6475    0.7119    0.0000 C   0  0  0  0  0  0  0  0  0  0  0  0
    3.3482   -0.0394    0.0000 C   0  0  0  0  0  0  0  0  0  0  0  0
    3.3489   -1.5394    0.0000 C   0  0  0  0  0  0  0  0  0  0  0  0
    4.6483   -2.2888    0.0000 C   0  0  0  0  0  0  0  0  0  0  0  0
    4.6490   -3.7888    0.0000 O   0  0  0  0  0  0  0  0  0  0  0  0
    5.9468   -0.0377    0.0000 O   0  0  0  0  0  0  0  0  0  0  0  0
  1  2  1  0  0  0  0 
  2  3  1  0  0  0  0 
  3  4  2  0  0  0  0 
  3  5  1  0  0  0  0 
  5  6  1  0  0  0  0 
  7  6  1  1  0  0  0 
  7  8  1  0  0  0  0 
  8  9  1  0  0  0  0 
  7  9  1  0  0  0  0 
  9 10  1  6  0  0  0 
 10 11  2  0  0  0  0 
 11 12  1  0  0  0  0 
 12 13  2  0  0  0  0 
 13 14  1  0  0  0  0 
 14 15  2  0  0  0  0 
 10 15  1  0  0  0  0 
 15 16  1  0  0  0  0 
 16 17  1  0  0  0  0 
 17 18  2  0  0  0  0 
 14 19  1  0  0  0  0 
M  END
> <Rank>
3

> <Priority_score>
1.33

> <Reaction_type>
oxidative ether cleavage to one alcohol and one aldehyde/ketone

> <Parent_ID>
1

> <Parent_InChI>
InChI=1S/C15H19NO2/c1-2-15(17)16-9-10-8-13(10)11-4-3-5-14-12(11)6-7-18-14/h3-5,10,13H,2,6-9H2,1H3,(H,16,17)/t10-,13+/m0/s1

> <Parent_SMILES>
C([H])([H])([H])C([H])([H])C(=O)N([H])C([H])([H])[C@]1([H])C([H])([H])[C@@]1([H])C2=C([H])C([H])=C([H])C3=C2C([H])([H])C([H])([H])O3

$$$$

  CDK     1104240402

 19 21  0  0  0  0  0  0  0  0999 V2000
    3.6390    9.5477    0.0000 C   0  0  0  0  0  0  0  0  0  0  0  0
    2.3397    8.7981    0.0000 C   0  0  0  0  0  0  0  0  0  0  0  0
    2.3392    7.2981    0.0000 C   0  0  0  0  0  0  0  0  0  0  0  0
    3.6380    6.5477    0.0000 O   0  0  0  0  0  0  0  0  0  0  0  0
    1.0400    6.5485    0.0000 N   0  0  0  0  0  0  0  0  0  0  0  0
    1.0395    5.0485    0.0000 C   0  0  0  0  0  0  0  0  0  0  0  0
   -0.2598    4.2989    0.0000 C   0  0  2  0  0  0  0  0  0  0  0  0
   -1.7606    4.2996    0.0000 C   0  0  0  0  0  0  0  0  0  0  0  0
   -1.0100    3.0000    0.0000 C   0  0  1  0  0  0  0  0  0  0  0  0
   -1.0100    1.5000    0.0000 C   0  0  0  0  0  0  0  0  0  0  0  0
   -2.3100    0.7500    0.0000 C   0  0  0  0  0  0  0  0  0  0  0  0
   -2.3100   -0.7500    0.0000 C   0  0  0  0  0  0  0  0  0  0  0  0
   -1.0100   -1.5000    0.0000 C   0  0  0  0  0  0  0  0  0  0  0  0
    0.2900   -0.7500    0.0000 C   0  0  0  0  0  0  0  0  0  0  0  0
    0.2900    0.7500    0.0000 C   0  0  0  0  0  0  0  0  0  0  0  0
    1.7200    1.2100    0.0000 C   0  0  0  0  0  0  0  0  0  0  0  0
    2.6000    0.0000    0.0000 C   0  0  0  0  0  0  0  0  0  0  0  0
    1.7200   -1.2100    0.0000 O   0  0  0  0  0  0  0  0  0  0  0  0
    2.1853    2.6360    0.0000 O   0  0  0  0  0  0  0  0  0  0  0  0
  1  2  1  0  0  0  0 
  2  3  1  0  0  0  0 
  3  4  2  0  0  0  0 
  3  5  1  0  0  0  0 
  5  6  1  0  0  0  0 
  7  6  1  1  0  0  0 
  7  8  1  0  0  0  0 
  8  9  1  0  0  0  0 
  7  9  1  0  0  0  0 
  9 10  1  6  0  0  0 
 10 11  2  0  0  0  0 
 11 12  1  0  0  0  0 
 12 13  2  0  0  0  0 
 13 14  1  0  0  0  0 
 14 15  2  0  0  0  0 
 10 15  1  0  0  0  0 
 15 16  1  0  0  0  0 
 16 17  1  0  0  0  0 
 17 18  1  0  0  0  0 
 14 18  1  0  0  0  0 
 16 19  1  0  0  0  0 
M  END
> <Rank>
5

> <Priority_score>
1.21

> <Reaction_type>
aliphatic hydroxylation

> <Parent_ID>
1

> <Parent_InChI>
InChI=1S/C15H19NO2/c1-2-15(17)16-9-10-8-13(10)11-4-3-5-14-12(11)6-7-18-14/h3-5,10,13H,2,6-9H2,1H3,(H,16,17)/t10-,13+/m0/s1

> <Parent_SMILES>
C([H])([H])([H])C([H])([H])C(=O)N([H])C([H])([H])[C@]1([H])C([H])([H])[C@@]1([H])C2=C([H])C([H])=C([H])C3=C2C([H])([H])C([H])([H])O3

$$$$

  CDK     1104240402

 19 20  0  0  0  0  0  0  0  0999 V2000
    3.3460   -1.5398    0.0000 C   0  0  0  0  0  0  0  0  0  0  0  0
    3.3465   -0.0398    0.0000 C   0  0  0  0  0  0  0  0  0  0  0  0
    4.6458    0.7098    0.0000 C   0  0  0  0  0  0  0  0  0  0  0  0
    4.6465    2.2106    0.0000 C   0  0  0  0  0  0  0  0  0  0  0  0
    3.3476    2.9608    0.0000 C   0  0  2  0  0  0  0  0  0  0  0  0
    2.5976    4.2608    0.0000 C   0  0  0  0  0  0  0  0  0  0  0  0
    1.8476    2.9608    0.0000 C   0  0  1  0  0  0  0  0  0  0  0  0
    0.5487    2.2106    0.0000 C   0  0  0  0  0  0  0  0  0  0  0  0
   -0.7505    2.9604    0.0000 N   0  0  0  0  0  0  0  0  0  0  0  0
   -2.0494    2.2102    0.0000 C   0  0  0  0  0  0  0  0  0  0  0  0
   -2.0492    0.7102    0.0000 O   0  0  0  0  0  0  0  0  0  0  0  0
   -3.3486    2.9600    0.0000 C   0  0  0  0  0  0  0  0  0  0  0  0
   -4.6475    2.2098    0.0000 C   0  0  0  0  0  0  0  0  0  0  0  0
    5.9462    2.9612    0.0000 C   0  0  0  0  0  0  0  0  0  0  0  0
    5.9462    4.4612    0.0000 O   0  0  0  0  0  0  0  0  0  0  0  0
    7.2451    2.2110    0.0000 C   0  0  0  0  0  0  0  0  0  0  0  0
    7.2443    0.7102    0.0000 C   0  0  0  0  0  0  0  0  0  0  0  0
    5.9447   -0.0404    0.0000 C   0  0  0  0  0  0  0  0  0  0  0  0
    5.9447   -1.5404    0.0000 O   0  0  0  0  0  0  0  0  0  0  0  0
  1  2  1  0  0  0  0 
  2  3  1  0  0  0  0 
  3  4  2  0  0  0  0 
  5  4  1  1  0  0  0 
  5  6  1  0  0  0  0 
  6  7  1  0  0  0  0 
  5  7  1  0  0  0  0 
  7  8  1  6  0  0  0 
  8  9  1  0  0  0  0 
  9 10  1  0  0  0  0 
 10 11  2  0  0  0  0 
 10 12  1  0  0  0  0 
 12 13  1  0  0  0  0 
  4 14  1  0  0  0  0 
 14 15  2  0  0  0  0 
 14 16  1  0  0  0  0 
 16 17  2  0  0  0  0 
 17 18  1  0  0  0  0 
  3 18  1  0  0  0  0 
 18 19  2  0  0  0  0 
M  END
> <Rank>
6

> <Priority_score>
0.338

> <Reaction_type>
oxidation of 4-substituted anisole to quinone

> <Parent_ID>
1

> <Parent_InChI>
InChI=1S/C15H19NO2/c1-2-15(17)16-9-10-8-13(10)11-4-3-5-14-12(11)6-7-18-14/h3-5,10,13H,2,6-9H2,1H3,(H,16,17)/t10-,13+/m0/s1

> <Parent_SMILES>
C([H])([H])([H])C([H])([H])C(=O)N([H])C([H])([H])[C@]1([H])C([H])([H])[C@@]1([H])C2=C([H])C([H])=C([H])C3=C2C([H])([H])C([H])([H])O3

$$$$

  CDK     1104240402

 16 18  0  0  0  0  0  0  0  0999 V2000
   -2.3100   -0.7500    0.0000 C   0  0  0  0  0  0  0  0  0  0  0  0
   -1.0100   -1.5000    0.0000 C   0  0  0  0  0  0  0  0  0  0  0  0
    0.2900   -0.7500    0.0000 C   0  0  0  0  0  0  0  0  0  0  0  0
    0.2900    0.7500    0.0000 C   0  0  0  0  0  0  0  0  0  0  0  0
    1.7200    1.2100    0.0000 C   0  0  0  0  0  0  0  0  0  0  0  0
    2.6000    0.0000    0.0000 C   0  0  0  0  0  0  0  0  0  0  0  0
    1.7200   -1.2100    0.0000 O   0  0  0  0  0  0  0  0  0  0  0  0
   -1.0100    1.5000    0.0000 C   0  0  0  0  0  0  0  0  0  0  0  0
   -2.3100    0.7500    0.0000 C   0  0  0  0  0  0  0  0  0  0  0  0
   -1.0100    3.0000    0.0000 C   0  0  2  0  0  0  0  0  0  0  0  0
   -0.2594    4.2996    0.0000 C   0  0  0  0  0  0  0  0  0  0  0  0
   -1.7602    4.2989    0.0000 C   0  0  1  0  0  0  0  0  0  0  0  0
   -3.0595    5.0485    0.0000 C   0  0  0  0  0  0  0  0  0  0  0  0
   -3.0600    6.5485    0.0000 N   0  0  0  0  0  0  0  0  0  0  0  0
   -4.3592    7.2981    0.0000 C   0  0  0  0  0  0  0  0  0  0  0  0
   -4.3597    8.7981    0.0000 O   0  0  0  0  0  0  0  0  0  0  0  0
  1  2  2  0  0  0  0 
  2  3  1  0  0  0  0 
  3  4  2  0  0  0  0 
  4  5  1  0  0  0  0 
  5  6  1  0  0  0  0 
  6  7  1  0  0  0  0 
  3  7  1  0  0  0  0 
  4  8  1  0  0  0  0 
  8  9  2  0  0  0  0 
  1  9  1  0  0  0  0 
 10  8  1  1  0  0  0 
 10 11  1  0  0  0  0 
 11 12  1  0  0  0  0 
 10 12  1  0  0  0  0 
 12 13  1  6  0  0  0 
 13 14  1  0  0  0  0 
 14 15  1  0  0  0  0 
 15 16  2  0  0  0  0 
M  END
> <Rank>
7

> <Priority_score>
0.314

> <Reaction_type>
deformylation

> <Parent_ID>
1

> <Parent_InChI>
InChI=1S/C15H19NO2/c1-2-15(17)16-9-10-8-13(10)11-4-3-5-14-12(11)6-7-18-14/h3-5,10,13H,2,6-9H2,1H3,(H,16,17)/t10-,13+/m0/s1

> <Parent_SMILES>
C([H])([H])([H])C([H])([H])C(=O)N([H])C([H])([H])[C@]1([H])C([H])([H])[C@@]1([H])C2=C([H])C([H])=C([H])C3=C2C([H])([H])C([H])([H])O3

$$$$

  CDK     1104240402

 18 20  0  0  0  0  0  0  0  0999 V2000
    3.6390    9.5477    0.0000 C   0  0  0  0  0  0  0  0  0  0  0  0
    2.3397    8.7981    0.0000 C   0  0  0  0  0  0  0  0  0  0  0  0
    2.3392    7.2981    0.0000 C   0  0  0  0  0  0  0  0  0  0  0  0
    3.6380    6.5477    0.0000 O   0  0  0  0  0  0  0  0  0  0  0  0
    1.0400    6.5485    0.0000 N   0  0  0  0  0  0  0  0  0  0  0  0
    1.0395    5.0485    0.0000 C   0  0  0  0  0  0  0  0  0  0  0  0
   -0.2598    4.2989    0.0000 C   0  0  2  0  0  0  0  0  0  0  0  0
   -1.7606    4.2996    0.0000 C   0  0  0  0  0  0  0  0  0  0  0  0
   -1.0100    3.0000    0.0000 C   0  0  1  0  0  0  0  0  0  0  0  0
   -1.0100    1.5000    0.0000 C   0  0  0  0  0  0  0  0  0  0  0  0
   -2.3100    0.7500    0.0000 C   0  0  0  0  0  0  0  0  0  0  0  0
   -2.3100   -0.7500    0.0000 C   0  0  0  0  0  0  0  0  0  0  0  0
   -1.0100   -1.5000    0.0000 C   0  0  0  0  0  0  0  0  0  0  0  0
    0.2900   -0.7500    0.0000 C   0  0  0  0  0  0  0  0  0  0  0  0
    0.2900    0.7500    0.0000 C   0  0  0  0  0  0  0  0  0  0  0  0
    1.7200    1.2100    0.0000 C   0  0  0  0  0  0  0  0  0  0  0  0
    2.6000    0.0000    0.0000 C   0  0  0  0  0  0  0  0  0  0  0  0
    1.7200   -1.2100    0.0000 O   0  0  0  0  0  0  0  0  0  0  0  0
  1  2  2  0  0  0  0 
  2  3  1  0  0  0  0 
  3  4  2  0  0  0  0 
  3  5  1  0  0  0  0 
  5  6  1  0  0  0  0 
  7  6  1  1  0  0  0 
  7  8  1  0  0  0  0 
  8  9  1  0  0  0  0 
  7  9  1  0  0  0  0 
  9 10  1  6  0  0  0 
 10 11  2  0  0  0  0 
 11 12  1  0  0  0  0 
 12 13  2  0  0  0  0 
 13 14  1  0  0  0  0 
 14 15  2  0  0  0  0 
 10 15  1  0  0  0  0 
 15 16  1  0  0  0  0 
 16 17  1  0  0  0  0 
 17 18  1  0  0  0  0 
 14 18  1  0  0  0  0 
M  END
> <Rank>
7

> <Priority_score>
0.314

> <Reaction_type>
alkyl dehydrogenation

> <Parent_ID>
1

> <Parent_InChI>
InChI=1S/C15H19NO2/c1-2-15(17)16-9-10-8-13(10)11-4-3-5-14-12(11)6-7-18-14/h3-5,10,13H,2,6-9H2,1H3,(H,16,17)/t10-,13+/m0/s1

> <Parent_SMILES>
C([H])([H])([H])C([H])([H])C(=O)N([H])C([H])([H])[C@]1([H])C([H])([H])[C@@]1([H])C2=C([H])C([H])=C([H])C3=C2C([H])([H])C([H])([H])O3

$$$$

  CDK     1104240402

 18 20  0  0  0  0  0  0  0  0999 V2000
    3.6390    9.5477    0.0000 C   0  0  0  0  0  0  0  0  0  0  0  0
    2.3397    8.7981    0.0000 C   0  0  0  0  0  0  0  0  0  0  0  0
    2.3392    7.2981    0.0000 C   0  0  0  0  0  0  0  0  0  0  0  0
    3.6380    6.5477    0.0000 O   0  0  0  0  0  0  0  0  0  0  0  0
    1.0400    6.5485    0.0000 N   0  0  0  0  0  0  0  0  0  0  0  0
    1.0395    5.0485    0.0000 C   0  0  0  0  0  0  0  0  0  0  0  0
   -0.2598    4.2989    0.0000 C   0  0  2  0  0  0  0  0  0  0  0  0
   -1.7606    4.2996    0.0000 C   0  0  0  0  0  0  0  0  0  0  0  0
   -1.0100    3.0000    0.0000 C   0  0  1  0  0  0  0  0  0  0  0  0
   -1.0100    1.5000    0.0000 C   0  0  0  0  0  0  0  0  0  0  0  0
   -2.3100    0.7500    0.0000 C   0  0  0  0  0  0  0  0  0  0  0  0
   -2.3100   -0.7500    0.0000 C   0  0  0  0  0  0  0  0  0  0  0  0
   -1.0100   -1.5000    0.0000 C   0  0  0  0  0  0  0  0  0  0  0  0
    0.2900   -0.7500    0.0000 C   0  0  0  0  0  0  0  0  0  0  0  0
    0.2900    0.7500    0.0000 C   0  0  0  0  0  0  0  0  0  0  0  0
    1.7200    1.2100    0.0000 C   0  0  0  0  0  0  0  0  0  0  0  0
    2.6000    0.0000    0.0000 C   0  0  0  0  0  0  0  0  0  0  0  0
    1.7200   -1.2100    0.0000 O   0  0  0  0  0  0  0  0  0  0  0  0
  1  2  1  0  0  0  0 
  2  3  1  0  0  0  0 
  3  4  2  0  0  0  0 
  3  5  1  0  0  0  0 
  5  6  1  0  0  0  0 
  7  6  1  1  0  0  0 
  7  8  1  0  0  0  0 
  8  9  1  0  0  0  0 
  7  9  1  0  0  0  0 
  9 10  1  6  0  0  0 
 10 11  2  0  0  0  0 
 11 12  1  0  0  0  0 
 12 13  2  0  0  0  0 
 13 14  1  0  0  0  0 
 14 15  2  0  0  0  0 
 10 15  1  0  0  0  0 
 15 16  1  0  0  0  0 
 16 17  2  0  0  0  0 
 17 18  1  0  0  0  0 
 14 18  1  0  0  0  0 
M  END
> <Rank>
9

> <Priority_score>
0.266

> <Reaction_type>
alkyl dehydrogenation

> <Parent_ID>
1

> <Parent_InChI>
InChI=1S/C15H19NO2/c1-2-15(17)16-9-10-8-13(10)11-4-3-5-14-12(11)6-7-18-14/h3-5,10,13H,2,6-9H2,1H3,(H,16,17)/t10-,13+/m0/s1

> <Parent_SMILES>
C([H])([H])([H])C([H])([H])C(=O)N([H])C([H])([H])[C@]1([H])C([H])([H])[C@@]1([H])C2=C([H])C([H])=C([H])C3=C2C([H])([H])C([H])([H])O3

$$$$
