
  CDK     1104240358

 17 18  0  0  0  0  0  0  0  0999 V2000
    2.6377    4.1586    0.0000 C   0  0  0  0  0  0  0  0  0  0  0  0
    1.5254    3.1523    0.0000 C   0  0  0  0  0  0  0  0  0  0  0  0
    0.0971    3.6132    0.0000 C   0  0  0  0  0  0  0  0  0  0  0  0
   -1.0153    2.6069    0.0000 C   0  0  0  0  0  0  0  0  0  0  0  0
   -0.6994    1.1397    0.0000 C   0  0  0  0  0  0  0  0  0  0  0  0
    0.7289    0.6788    0.0000 C   0  0  0  0  0  0  0  0  0  0  0  0
    1.8413    1.6851    0.0000 C   0  0  0  0  0  0  0  0  0  0  0  0
    1.0440   -0.7878    0.0000 C   0  0  0  0  0  0  0  0  0  0  0  0
    2.4715   -1.2482    0.0000 O   0  0  0  0  0  0  0  0  0  0  0  0
   -2.4431    3.0669    0.0000 O   0  0  0  0  0  0  0  0  0  0  0  0
   -3.5553    2.0604    0.0000 C   0  0  0  0  0  0  0  0  0  0  0  0
   -4.9830    2.5204    0.0000 C   0  0  1  0  0  0  0  0  0  0  0  0
   -5.4430    3.9404    0.0000 C   0  0  0  0  0  0  0  0  0  0  0  0
   -6.9430    3.9404    0.0000 N   0  0  0  0  0  0  0  0  0  0  0  0
   -7.4030    2.5204    0.0000 C   0  0  0  0  0  0  0  0  0  0  0  0
   -8.8307    2.0604    0.0000 O   0  0  0  0  0  0  0  0  0  0  0  0
   -6.1930    1.6304    0.0000 O   0  0  0  0  0  0  0  0  0  0  0  0
  1  2  1  0  0  0  0 
  2  3  2  0  0  0  0 
  3  4  1  0  0  0  0 
  4  5  2  0  0  0  0 
  5  6  1  0  0  0  0 
  6  7  2  0  0  0  0 
  2  7  1  0  0  0  0 
  6  8  1  0  0  0  0 
  8  9  1  0  0  0  0 
  4 10  1  0  0  0  0 
 10 11  1  0  0  0  0 
 12 11  1  6  0  0  0 
 12 13  1  0  0  0  0 
 13 14  1  0  0  0  0 
 14 15  1  0  0  0  0 
 15 16  2  0  0  0  0 
 15 17  1  0  0  0  0 
 12 17  1  0  0  0  0 
M  END
> <Rank>
1

> <Priority_score>
2.9499999999999997

> <Reaction_type>
aliphatic hydroxylation

> <Parent_ID>
1

> <Parent_InChI>
InChI=1S/C12H15NO3/c1-8-3-9(2)5-10(4-8)15-7-11-6-13-12(14)16-11/h3-5,11H,6-7H2,1-2H3,(H,13,14)/t11-/m1/s1

> <Parent_SMILES>
C([H])([H])([H])C1=C([H])C(=C([H])C(=C1[H])C([H])([H])[H])OC([H])([H])[C@@]2([H])C([H])([H])N([H])C(=O)O2

$$$$

  CDK     1104240358

 17 18  0  0  0  0  0  0  0  0999 V2000
   -8.8303   -1.2502    0.0000 C   0  0  0  0  0  0  0  0  0  0  0  0
   -7.7179   -0.2439    0.0000 C   0  0  0  0  0  0  0  0  0  0  0  0
   -8.0332    1.2234    0.0000 C   0  0  0  0  0  0  0  0  0  0  0  0
   -6.9206    2.2308    0.0000 C   0  0  0  0  0  0  0  0  0  0  0  0
   -5.4929    1.7708    0.0000 C   0  0  0  0  0  0  0  0  0  0  0  0
   -5.1777    0.3035    0.0000 C   0  0  0  0  0  0  0  0  0  0  0  0
   -6.2902   -0.7039    0.0000 C   0  0  0  0  0  0  0  0  0  0  0  0
   -3.7499   -0.1565    0.0000 O   0  0  0  0  0  0  0  0  0  0  0  0
   -2.6377    0.8500    0.0000 C   0  0  0  0  0  0  0  0  0  0  0  0
   -1.2100    0.3900    0.0000 C   0  0  1  0  0  0  0  0  0  0  0  0
   -0.7500   -1.0300    0.0000 C   0  0  0  0  0  0  0  0  0  0  0  0
    0.7500   -1.0300    0.0000 N   0  0  0  0  0  0  0  0  0  0  0  0
    1.2100    0.3900    0.0000 C   0  0  0  0  0  0  0  0  0  0  0  0
    2.6377    0.8500    0.0000 O   0  0  0  0  0  0  0  0  0  0  0  0
    0.0000    1.2800    0.0000 O   0  0  0  0  0  0  0  0  0  0  0  0
   -7.2364    3.6972    0.0000 C   0  0  0  0  0  0  0  0  0  0  0  0
   -9.4609    1.6834    0.0000 O   0  0  0  0  0  0  0  0  0  0  0  0
  1  2  1  0  0  0  0 
  2  3  2  0  0  0  0 
  3  4  1  0  0  0  0 
  4  5  2  0  0  0  0 
  5  6  1  0  0  0  0 
  6  7  2  0  0  0  0 
  2  7  1  0  0  0  0 
  6  8  1  0  0  0  0 
  8  9  1  0  0  0  0 
 10  9  1  6  0  0  0 
 10 11  1  0  0  0  0 
 11 12  1  0  0  0  0 
 12 13  1  0  0  0  0 
 13 14  2  0  0  0  0 
 13 15  1  0  0  0  0 
 10 15  1  0  0  0  0 
  4 16  1  0  0  0  0 
  3 17  1  0  0  0  0 
M  END
> <Rank>
2

> <Priority_score>
2.7

> <Reaction_type>
aromatic hydroxylation

> <Parent_ID>
1

> <Parent_InChI>
InChI=1S/C12H15NO3/c1-8-3-9(2)5-10(4-8)15-7-11-6-13-12(14)16-11/h3-5,11H,6-7H2,1-2H3,(H,13,14)/t11-/m1/s1

> <Parent_SMILES>
C([H])([H])([H])C1=C([H])C(=C([H])C(=C1[H])C([H])([H])[H])OC([H])([H])[C@@]2([H])C([H])([H])N([H])C(=O)O2

$$$$

  CDK     1104240358

  9  9  0  0  0  0  0  0  0  0999 V2000
   -0.0000   -1.5002    0.0000 C   0  0  0  0  0  0  0  0  0  0  0  0
   -0.0000   -0.0002    0.0000 C   0  0  0  0  0  0  0  0  0  0  0  0
    1.3000    0.7498    0.0000 C   0  0  0  0  0  0  0  0  0  0  0  0
    1.3000    2.2498    0.0000 C   0  0  0  0  0  0  0  0  0  0  0  0
    0.0000    2.9998    0.0000 C   0  0  0  0  0  0  0  0  0  0  0  0
   -1.3000    2.2498    0.0000 C   0  0  0  0  0  0  0  0  0  0  0  0
   -1.3000    0.7498    0.0000 C   0  0  0  0  0  0  0  0  0  0  0  0
   -2.5989    3.0000    0.0000 C   0  0  0  0  0  0  0  0  0  0  0  0
    2.5989    3.0000    0.0000 O   0  0  0  0  0  0  0  0  0  0  0  0
  1  2  1  0  0  0  0 
  2  3  2  0  0  0  0 
  3  4  1  0  0  0  0 
  4  5  2  0  0  0  0 
  5  6  1  0  0  0  0 
  6  7  2  0  0  0  0 
  2  7  1  0  0  0  0 
  6  8  1  0  0  0  0 
  4  9  1  0  0  0  0 
M  END
> <Rank>
3

> <Priority_score>
1.395

> <Reaction_type>
oxidative ether cleavage to one alcohol and one aldehyde/ketone

> <Parent_ID>
1

> <Parent_InChI>
InChI=1S/C12H15NO3/c1-8-3-9(2)5-10(4-8)15-7-11-6-13-12(14)16-11/h3-5,11H,6-7H2,1-2H3,(H,13,14)/t11-/m1/s1

> <Parent_SMILES>
C([H])([H])([H])C1=C([H])C(=C([H])C(=C1[H])C([H])([H])[H])OC([H])([H])[C@@]2([H])C([H])([H])N([H])C(=O)O2

$$$$

  CDK     1104240358

  8  8  0  0  0  0  0  0  0  0999 V2000
   -0.3622    1.2800    0.0000 C   0  0  0  0  0  0  0  0  0  0  0  0
    0.0978   -0.1400    0.0000 C   0  0  2  0  0  0  0  0  0  0  0  0
    1.5255   -0.6000    0.0000 C   0  0  0  0  0  0  0  0  0  0  0  0
    2.6377    0.4065    0.0000 O   0  0  0  0  0  0  0  0  0  0  0  0
   -1.1122   -1.0300    0.0000 O   0  0  0  0  0  0  0  0  0  0  0  0
   -2.3222   -0.1400    0.0000 C   0  0  0  0  0  0  0  0  0  0  0  0
   -3.7499   -0.6000    0.0000 O   0  0  0  0  0  0  0  0  0  0  0  0
   -1.8622    1.2800    0.0000 N   0  0  0  0  0  0  0  0  0  0  0  0
  1  2  1  0  0  0  0 
  2  3  1  6  0  0  0 
  3  4  2  0  0  0  0 
  2  5  1  0  0  0  0 
  5  6  1  0  0  0  0 
  6  7  2  0  0  0  0 
  6  8  1  0  0  0  0 
  1  8  1  0  0  0  0 
M  END
> <Rank>
3

> <Priority_score>
1.395

> <Reaction_type>
oxidative ether cleavage to one alcohol and one aldehyde/ketone

> <Parent_ID>
1

> <Parent_InChI>
InChI=1S/C12H15NO3/c1-8-3-9(2)5-10(4-8)15-7-11-6-13-12(14)16-11/h3-5,11H,6-7H2,1-2H3,(H,13,14)/t11-/m1/s1

> <Parent_SMILES>
C([H])([H])([H])C1=C([H])C(=C([H])C(=C1[H])C([H])([H])[H])OC([H])([H])[C@@]2([H])C([H])([H])N([H])C(=O)O2

$$$$

  CDK     1104240358

 17 18  0  0  0  0  0  0  0  0999 V2000
    2.6377    3.6981    0.0000 C   0  0  0  0  0  0  0  0  0  0  0  0
    1.5254    2.6918    0.0000 C   0  0  0  0  0  0  0  0  0  0  0  0
    0.0971    3.1528    0.0000 C   0  0  0  0  0  0  0  0  0  0  0  0
   -1.0153    2.1465    0.0000 C   0  0  0  0  0  0  0  0  0  0  0  0
   -0.6994    0.6793    0.0000 C   0  0  0  0  0  0  0  0  0  0  0  0
    0.7289    0.2184    0.0000 C   0  0  0  0  0  0  0  0  0  0  0  0
    1.8413    1.2246    0.0000 C   0  0  0  0  0  0  0  0  0  0  0  0
    1.0440   -1.2482    0.0000 C   0  0  0  0  0  0  0  0  0  0  0  0
   -2.4431    2.6064    0.0000 O   0  0  0  0  0  0  0  0  0  0  0  0
   -3.5553    1.6000    0.0000 C   0  0  0  0  0  0  0  0  0  0  0  0
   -4.9830    2.0600    0.0000 C   0  0  1  0  0  0  0  0  0  0  0  0
   -5.4430    3.4800    0.0000 C   0  0  0  0  0  0  0  0  0  0  0  0
   -6.9430    3.4800    0.0000 N   0  0  0  0  0  0  0  0  0  0  0  0
   -7.4030    2.0600    0.0000 C   0  0  0  0  0  0  0  0  0  0  0  0
   -8.8307    1.6000    0.0000 O   0  0  0  0  0  0  0  0  0  0  0  0
   -6.1930    1.1700    0.0000 O   0  0  0  0  0  0  0  0  0  0  0  0
   -3.2398    0.1335    0.0000 O   0  0  0  0  0  0  0  0  0  0  0  0
  1  2  1  0  0  0  0 
  2  3  2  0  0  0  0 
  3  4  1  0  0  0  0 
  4  5  2  0  0  0  0 
  5  6  1  0  0  0  0 
  6  7  2  0  0  0  0 
  2  7  1  0  0  0  0 
  6  8  1  0  0  0  0 
  4  9  1  0  0  0  0 
  9 10  1  0  0  0  0 
 10 11  1  0  0  0  0 
 11 12  1  0  0  0  0 
 12 13  1  0  0  0  0 
 13 14  1  0  0  0  0 
 14 15  2  0  0  0  0 
 14 16  1  0  0  0  0 
 11 16  1  6  0  0  0 
 10 17  1  0  0  0  0 
M  END
> <Rank>
3

> <Priority_score>
1.395

> <Reaction_type>
aliphatic hydroxylation

> <Parent_ID>
1

> <Parent_InChI>
InChI=1S/C12H15NO3/c1-8-3-9(2)5-10(4-8)15-7-11-6-13-12(14)16-11/h3-5,11H,6-7H2,1-2H3,(H,13,14)/t11-/m1/s1

> <Parent_SMILES>
C([H])([H])([H])C1=C([H])C(=C([H])C(=C1[H])C([H])([H])[H])OC([H])([H])[C@@]2([H])C([H])([H])N([H])C(=O)O2

$$$$

  CDK     1104240358

  7  7  0  0  0  0  0  0  0  0999 V2000
    2.6377   -0.6000    0.0000 C   0  0  0  0  0  0  0  0  0  0  0  0
    1.2100   -0.1400    0.0000 C   0  0  1  0  0  0  0  0  0  0  0  0
    0.7500    1.2800    0.0000 C   0  0  0  0  0  0  0  0  0  0  0  0
   -0.7500    1.2800    0.0000 N   0  0  0  0  0  0  0  0  0  0  0  0
   -1.2100   -0.1400    0.0000 C   0  0  0  0  0  0  0  0  0  0  0  0
   -2.6377   -0.6000    0.0000 O   0  0  0  0  0  0  0  0  0  0  0  0
    0.0000   -1.0300    0.0000 O   0  0  0  0  0  0  0  0  0  0  0  0
  2  1  1  6  0  0  0 
  2  3  1  0  0  0  0 
  3  4  1  0  0  0  0 
  4  5  1  0  0  0  0 
  5  6  2  0  0  0  0 
  5  7  1  0  0  0  0 
  2  7  1  0  0  0  0 
M  END
> <Rank>
6

> <Priority_score>
0.54

> <Reaction_type>
oxidation of 4-substituted anisole to quinone

> <Parent_ID>
1

> <Parent_InChI>
InChI=1S/C12H15NO3/c1-8-3-9(2)5-10(4-8)15-7-11-6-13-12(14)16-11/h3-5,11H,6-7H2,1-2H3,(H,13,14)/t11-/m1/s1

> <Parent_SMILES>
C([H])([H])([H])C1=C([H])C(=C([H])C(=C1[H])C([H])([H])[H])OC([H])([H])[C@@]2([H])C([H])([H])N([H])C(=O)O2

$$$$

  CDK     1104240358

 10 10  0  0  0  0  0  0  0  0999 V2000
    2.5989   -3.0000    0.0000 C   0  0  0  0  0  0  0  0  0  0  0  0
    1.3000   -2.2498    0.0000 C   0  0  0  0  0  0  0  0  0  0  0  0
   -0.0000   -2.9998    0.0000 C   0  0  0  0  0  0  0  0  0  0  0  0
   -1.3000   -2.2498    0.0000 C   0  0  0  0  0  0  0  0  0  0  0  0
   -2.5989   -3.0000    0.0000 O   0  0  0  0  0  0  0  0  0  0  0  0
   -1.3000   -0.7498    0.0000 C   0  0  0  0  0  0  0  0  0  0  0  0
    0.0000    0.0002    0.0000 C   0  0  0  0  0  0  0  0  0  0  0  0
    0.0000    1.5002    0.0000 C   0  0  0  0  0  0  0  0  0  0  0  0
    1.3000   -0.7498    0.0000 C   0  0  0  0  0  0  0  0  0  0  0  0
    2.5989    0.0004    0.0000 O   0  0  0  0  0  0  0  0  0  0  0  0
  1  2  1  0  0  0  0 
  2  3  2  0  0  0  0 
  3  4  1  0  0  0  0 
  4  5  2  0  0  0  0 
  4  6  1  0  0  0  0 
  6  7  2  0  0  0  0 
  7  8  1  0  0  0  0 
  7  9  1  0  0  0  0 
  2  9  1  0  0  0  0 
  9 10  2  0  0  0  0 
M  END
> <Rank>
6

> <Priority_score>
0.54

> <Reaction_type>
oxidation of 4-substituted anisole to quinone

> <Parent_ID>
1

> <Parent_InChI>
InChI=1S/C12H15NO3/c1-8-3-9(2)5-10(4-8)15-7-11-6-13-12(14)16-11/h3-5,11H,6-7H2,1-2H3,(H,13,14)/t11-/m1/s1

> <Parent_SMILES>
C([H])([H])([H])C1=C([H])C(=C([H])C(=C1[H])C([H])([H])[H])OC([H])([H])[C@@]2([H])C([H])([H])N([H])C(=O)O2

$$$$

  CDK     1104240358

 16 17  0  0  0  0  0  0  0  0999 V2000
    2.6377    3.6981    0.0000 C   0  0  0  0  0  0  0  0  0  0  0  0
    1.5254    2.6918    0.0000 C   0  0  0  0  0  0  0  0  0  0  0  0
    0.0971    3.1528    0.0000 C   0  0  0  0  0  0  0  0  0  0  0  0
   -1.0153    2.1465    0.0000 C   0  0  0  0  0  0  0  0  0  0  0  0
   -0.6994    0.6793    0.0000 C   0  0  0  0  0  0  0  0  0  0  0  0
    0.7289    0.2184    0.0000 C   0  0  0  0  0  0  0  0  0  0  0  0
    1.8413    1.2246    0.0000 C   0  0  0  0  0  0  0  0  0  0  0  0
    1.0440   -1.2482    0.0000 C   0  0  0  0  0  0  0  0  0  0  0  0
   -2.4431    2.6064    0.0000 O   0  0  0  0  0  0  0  0  0  0  0  0
   -3.5553    1.6000    0.0000 C   0  0  0  0  0  0  0  0  0  0  0  0
   -4.9830    2.0600    0.0000 C   0  0  0  0  0  0  0  0  0  0  0  0
   -5.4430    3.4800    0.0000 C   0  0  0  0  0  0  0  0  0  0  0  0
   -6.9430    3.4800    0.0000 N   0  0  0  0  0  0  0  0  0  0  0  0
   -7.4030    2.0600    0.0000 C   0  0  0  0  0  0  0  0  0  0  0  0
   -8.8307    1.6000    0.0000 O   0  0  0  0  0  0  0  0  0  0  0  0
   -6.1930    1.1700    0.0000 O   0  0  0  0  0  0  0  0  0  0  0  0
  1  2  1  0  0  0  0 
  2  3  2  0  0  0  0 
  3  4  1  0  0  0  0 
  4  5  2  0  0  0  0 
  5  6  1  0  0  0  0 
  6  7  2  0  0  0  0 
  2  7  1  0  0  0  0 
  6  8  1  0  0  0  0 
  4  9  1  0  0  0  0 
  9 10  1  4  0  0  0 
 10 11  2  0  0  0  0 
 11 12  1  0  0  0  0 
 12 13  1  0  0  0  0 
 13 14  1  0  0  0  0 
 14 15  2  0  0  0  0 
 14 16  1  0  0  0  0 
 11 16  1  0  0  0  0 
M  END
> <Rank>
8

> <Priority_score>
0.279

> <Reaction_type>
alkyl dehydrogenation

> <Parent_ID>
1

> <Parent_InChI>
InChI=1S/C12H15NO3/c1-8-3-9(2)5-10(4-8)15-7-11-6-13-12(14)16-11/h3-5,11H,6-7H2,1-2H3,(H,13,14)/t11-/m1/s1

> <Parent_SMILES>
C([H])([H])([H])C1=C([H])C(=C([H])C(=C1[H])C([H])([H])[H])OC([H])([H])[C@@]2([H])C([H])([H])N([H])C(=O)O2

$$$$
