
  CDK     1104240503

 33 37  0  0  0  0  0  0  0  0999 V2000
   -5.0271    7.9905    0.0000 C   0  0  0  0  0  0  0  0  0  0  0  0
   -6.3232    7.2511    0.0000 C   0  0  0  0  0  0  0  0  0  0  0  0
   -6.3269    5.7503    0.0000 C   0  0  0  0  0  0  0  0  0  0  0  0
   -5.0295    4.9975    0.0000 C   0  0  0  0  0  0  0  0  0  0  0  0
   -3.7283    5.7455    0.0000 C   0  0  0  0  0  0  0  0  0  0  0  0
   -3.7296    7.2377    0.0000 C   0  0  0  0  0  0  0  0  0  0  0  0
   -2.4297    4.9949    0.0000 C   0  0  0  0  0  0  0  0  0  0  0  0
   -2.4304    3.4949    0.0000 C   0  0  2  0  0  0  0  0  0  0  0  0
   -3.7297    2.7453    0.0000 C   0  0  0  0  0  0  0  0  0  0  0  0
   -3.7297    1.2445    0.0000 O   0  0  0  0  0  0  0  0  0  0  0  0
   -2.4304    0.4932    0.0000 C   0  0  0  0  0  0  0  0  0  0  0  0
   -1.1311    1.2428    0.0000 C   0  0  0  0  0  0  0  0  0  0  0  0
   -1.1311    2.7436    0.0000 N   0  0  0  0  0  0  0  0  0  0  0  0
    0.1682    3.4932    0.0000 C   0  0  0  0  0  0  0  0  0  0  0  0
    1.4670    2.7428    0.0000 O   0  0  0  0  0  0  0  0  0  0  0  0
    0.1687    4.9932    0.0000 C   0  0  0  0  0  0  0  0  0  0  0  0
   -1.1307    5.7443    0.0000 C   0  0  0  0  0  0  0  0  0  0  0  0
   -1.1310    7.2451    0.0000 C   0  0  0  0  0  0  0  0  0  0  0  0
    0.1682    7.9949    0.0000 C   0  0  0  0  0  0  0  0  0  0  0  0
    1.4676    7.2438    0.0000 C   0  0  0  0  0  0  0  0  0  0  0  0
    1.4678    5.7430    0.0000 C   0  0  0  0  0  0  0  0  0  0  0  0
    2.7668    4.9930    0.0000 N   0  0  0  0  0  0  0  0  0  0  0  0
    4.1426    5.5959    0.0000 N   0  0  0  0  0  0  0  0  0  0  0  0
    5.1424    4.4875    0.0000 C   0  0  0  0  0  0  0  0  0  0  0  0
    4.3924    3.1885    0.0000 C   0  0  0  0  0  0  0  0  0  0  0  0
    2.9326    3.5001    0.0000 N   0  0  0  0  0  0  0  0  0  0  0  0
    0.1687    9.4949    0.0000 C   0  0  0  0  0  0  0  0  0  0  0  0
    1.4679   10.2445    0.0000 O   0  0  0  0  0  0  0  0  0  0  0  0
   -7.6277    5.0033    0.0000 N   0  0  0  0  0  0  0  0  0  0  0  0
   -7.7969    3.5108    0.0000 N   0  0  0  0  0  0  0  0  0  0  0  0
   -9.2574    3.2025    0.0000 C   0  0  0  0  0  0  0  0  0  0  0  0
  -10.0043    4.5033    0.0000 C   0  0  0  0  0  0  0  0  0  0  0  0
   -9.0020    5.6094    0.0000 N   0  0  0  0  0  0  0  0  0  0  0  0
  1  2  2  0  0  0  0 
  2  3  1  0  0  0  0 
  3  4  2  0  0  0  0 
  4  5  1  0  0  0  0 
  5  6  2  0  0  0  0 
  1  6  1  0  0  0  0 
  5  7  1  0  0  0  0 
  8  7  1  1  0  0  0 
  8  9  1  0  0  0  0 
  9 10  1  0  0  0  0 
 10 11  1  0  0  0  0 
 11 12  1  0  0  0  0 
 12 13  1  0  0  0  0 
  8 13  1  0  0  0  0 
 13 14  1  0  0  0  0 
 14 15  2  0  0  0  0 
 14 16  1  0  0  0  0 
 16 17  2  0  0  0  0 
 17 18  1  0  0  0  0 
 18 19  2  0  0  0  0 
 19 20  1  0  0  0  0 
 20 21  2  0  0  0  0 
 16 21  1  0  0  0  0 
 21 22  1  0  0  0  0 
 22 23  1  0  0  0  0 
 23 24  2  0  0  0  0 
 24 25  1  0  0  0  0 
 25 26  2  0  0  0  0 
 22 26  1  0  0  0  0 
 19 27  1  0  0  0  0 
 27 28  1  0  0  0  0 
  3 29  1  0  0  0  0 
 29 30  1  0  0  0  0 
 30 31  2  0  0  0  0 
 31 32  1  0  0  0  0 
 32 33  2  0  0  0  0 
 29 33  1  0  0  0  0 
M  END
> <Rank>
1

> <Priority_score>
3.66

> <Reaction_type>
aliphatic hydroxylation

> <Parent_ID>
1

> <Parent_InChI>
InChI=1S/C23H23N7O2/c1-17-5-6-21(22(13-17)30-26-9-10-27-30)23(31)28-11-12-32-16-20(28)15-18-3-2-4-19(14-18)29-24-7-8-25-29/h2-10,13-14,20H,11-12,15-16H2,1H3/t20-/m1/s1

> <Parent_SMILES>
C([H])([H])([H])C1=C([H])C([H])=C(C(=C1[H])N2N=C([H])C([H])=N2)C(=O)N3C([H])([H])C([H])([H])OC([H])([H])[C@@]3([H])C([H])([H])C4=C([H])C([H])=C([H])C(=C4[H])N5N=C([H])C([H])=N5

$$$$

  CDK     1104240503

 33 37  0  0  0  0  0  0  0  0999 V2000
    4.4092    9.3284    0.0000 C   0  0  0  0  0  0  0  0  0  0  0  0
    3.1101    8.5786    0.0000 C   0  0  0  0  0  0  0  0  0  0  0  0
    3.1096    7.0778    0.0000 C   0  0  0  0  0  0  0  0  0  0  0  0
    1.8101    6.3270    0.0000 C   0  0  0  0  0  0  0  0  0  0  0  0
    0.5111    7.0770    0.0000 C   0  0  0  0  0  0  0  0  0  0  0  0
    0.5115    8.5778    0.0000 C   0  0  0  0  0  0  0  0  0  0  0  0
    1.8111    9.3286    0.0000 C   0  0  0  0  0  0  0  0  0  0  0  0
   -0.7875    9.3278    0.0000 N   0  0  0  0  0  0  0  0  0  0  0  0
   -2.1633    8.7249    0.0000 N   0  0  0  0  0  0  0  0  0  0  0  0
   -3.1630    9.8333    0.0000 C   0  0  0  0  0  0  0  0  0  0  0  0
   -2.4130   11.1323    0.0000 C   0  0  0  0  0  0  0  0  0  0  0  0
   -0.9533   10.8207    0.0000 N   0  0  0  0  0  0  0  0  0  0  0  0
    0.1589   11.8272    0.0000 O   0  0  0  0  0  0  0  0  0  0  0  0
   -0.7881    6.3272    0.0000 C   0  0  0  0  0  0  0  0  0  0  0  0
   -2.0870    7.0774    0.0000 O   0  0  0  0  0  0  0  0  0  0  0  0
   -0.7883    4.8272    0.0000 N   0  0  0  0  0  0  0  0  0  0  0  0
   -2.0885    4.0774    0.0000 C   0  0  0  0  0  0  0  0  0  0  0  0
   -2.0887    2.5774    0.0000 C   0  0  0  0  0  0  0  0  0  0  0  0
   -0.7888    1.8272    0.0000 O   0  0  0  0  0  0  0  0  0  0  0  0
    0.5113    2.5770    0.0000 C   0  0  0  0  0  0  0  0  0  0  0  0
    0.5115    4.0770    0.0000 C   0  0  1  0  0  0  0  0  0  0  0  0
    1.8106    4.8270    0.0000 C   0  0  0  0  0  0  0  0  0  0  0  0
    3.1096    4.0770    0.0000 C   0  0  0  0  0  0  0  0  0  0  0  0
    3.1116    2.5848    0.0000 C   0  0  0  0  0  0  0  0  0  0  0  0
    4.4094    1.8326    0.0000 C   0  0  0  0  0  0  0  0  0  0  0  0
    5.7052    2.5726    0.0000 C   0  0  0  0  0  0  0  0  0  0  0  0
    5.7082    4.0735    0.0000 C   0  0  0  0  0  0  0  0  0  0  0  0
    4.4104    4.8256    0.0000 C   0  0  0  0  0  0  0  0  0  0  0  0
    7.0086    4.8211    0.0000 N   0  0  0  0  0  0  0  0  0  0  0  0
    7.1771    6.3137    0.0000 N   0  0  0  0  0  0  0  0  0  0  0  0
    8.6374    6.6226    0.0000 C   0  0  0  0  0  0  0  0  0  0  0  0
    9.3850    5.3222    0.0000 C   0  0  0  0  0  0  0  0  0  0  0  0
    8.3832    4.2157    0.0000 N   0  0  0  0  0  0  0  0  0  0  0  0
  1  2  1  0  0  0  0 
  2  3  2  0  0  0  0 
  3  4  1  0  0  0  0 
  4  5  2  0  0  0  0 
  5  6  1  0  0  0  0 
  6  7  2  0  0  0  0 
  2  7  1  0  0  0  0 
  6  8  1  0  0  0  0 
  8  9  1  0  0  0  0 
  9 10  2  0  0  0  0 
 10 11  1  0  0  0  0 
 11 12  2  0  0  0  0 
  8 12  1  0  0  0  0 
 12 13  1  0  0  0  0 
  5 14  1  0  0  0  0 
 14 15  2  0  0  0  0 
 14 16  1  0  0  0  0 
 16 17  1  0  0  0  0 
 17 18  1  0  0  0  0 
 18 19  1  0  0  0  0 
 19 20  1  0  0  0  0 
 20 21  1  0  0  0  0 
 16 21  1  0  0  0  0 
 21 22  1  6  0  0  0 
 22 23  1  0  0  0  0 
 23 24  2  0  0  0  0 
 24 25  1  0  0  0  0 
 25 26  2  0  0  0  0 
 26 27  1  0  0  0  0 
 27 28  2  0  0  0  0 
 23 28  1  0  0  0  0 
 27 29  1  0  0  0  0 
 29 30  1  0  0  0  0 
 30 31  2  0  0  0  0 
 31 32  1  0  0  0  0 
 32 33  2  0  0  0  0 
 29 33  1  0  0  0  0 
M  CHG  1  12   1
M  CHG  1  13  -1
M  END
> <Rank>
2

> <Priority_score>
1.34

> <Reaction_type>
N-oxidation

> <Parent_ID>
1

> <Parent_InChI>
InChI=1S/C23H23N7O2/c1-17-5-6-21(22(13-17)30-26-9-10-27-30)23(31)28-11-12-32-16-20(28)15-18-3-2-4-19(14-18)29-24-7-8-25-29/h2-10,13-14,20H,11-12,15-16H2,1H3/t20-/m1/s1

> <Parent_SMILES>
C([H])([H])([H])C1=C([H])C([H])=C(C(=C1[H])N2N=C([H])C([H])=N2)C(=O)N3C([H])([H])C([H])([H])OC([H])([H])[C@@]3([H])C([H])([H])C4=C([H])C([H])=C([H])C(=C4[H])N5N=C([H])C([H])=N5

$$$$

  CDK     1104240503

 33 37  0  0  0  0  0  0  0  0999 V2000
    4.9637    8.4354    0.0000 C   0  0  0  0  0  0  0  0  0  0  0  0
    3.6645    7.6856    0.0000 C   0  0  0  0  0  0  0  0  0  0  0  0
    3.6640    6.1848    0.0000 C   0  0  0  0  0  0  0  0  0  0  0  0
    2.3645    5.4339    0.0000 C   0  0  0  0  0  0  0  0  0  0  0  0
    1.0655    6.1839    0.0000 C   0  0  0  0  0  0  0  0  0  0  0  0
    1.0659    7.6848    0.0000 C   0  0  0  0  0  0  0  0  0  0  0  0
    2.3655    8.4356    0.0000 C   0  0  0  0  0  0  0  0  0  0  0  0
   -0.2331    8.4348    0.0000 N   0  0  0  0  0  0  0  0  0  0  0  0
   -1.6089    7.8319    0.0000 N   0  0  0  0  0  0  0  0  0  0  0  0
   -2.6086    8.9402    0.0000 C   0  0  0  0  0  0  0  0  0  0  0  0
   -1.8586   10.2393    0.0000 C   0  0  0  0  0  0  0  0  0  0  0  0
   -0.3989    9.9277    0.0000 N   0  0  0  0  0  0  0  0  0  0  0  0
   -2.4681   11.6099    0.0000 O   0  0  0  0  0  0  0  0  0  0  0  0
   -0.2337    5.4341    0.0000 C   0  0  0  0  0  0  0  0  0  0  0  0
   -1.5326    6.1843    0.0000 O   0  0  0  0  0  0  0  0  0  0  0  0
   -0.2339    3.9341    0.0000 N   0  0  0  0  0  0  0  0  0  0  0  0
   -1.5340    3.1843    0.0000 C   0  0  0  0  0  0  0  0  0  0  0  0
   -1.5343    1.6843    0.0000 C   0  0  0  0  0  0  0  0  0  0  0  0
   -0.2344    0.9341    0.0000 O   0  0  0  0  0  0  0  0  0  0  0  0
    1.0657    1.6839    0.0000 C   0  0  0  0  0  0  0  0  0  0  0  0
    1.0660    3.1839    0.0000 C   0  0  1  0  0  0  0  0  0  0  0  0
    2.3650    3.9339    0.0000 C   0  0  0  0  0  0  0  0  0  0  0  0
    3.6640    3.1839    0.0000 C   0  0  0  0  0  0  0  0  0  0  0  0
    3.6660    1.6917    0.0000 C   0  0  0  0  0  0  0  0  0  0  0  0
    4.9638    0.9396    0.0000 C   0  0  0  0  0  0  0  0  0  0  0  0
    6.2596    1.6796    0.0000 C   0  0  0  0  0  0  0  0  0  0  0  0
    6.2626    3.1804    0.0000 C   0  0  0  0  0  0  0  0  0  0  0  0
    4.9648    3.9326    0.0000 C   0  0  0  0  0  0  0  0  0  0  0  0
    7.5630    3.9280    0.0000 N   0  0  0  0  0  0  0  0  0  0  0  0
    7.7315    5.4206    0.0000 N   0  0  0  0  0  0  0  0  0  0  0  0
    9.1918    5.7296    0.0000 C   0  0  0  0  0  0  0  0  0  0  0  0
    9.9394    4.4291    0.0000 C   0  0  0  0  0  0  0  0  0  0  0  0
    8.9376    3.3226    0.0000 N   0  0  0  0  0  0  0  0  0  0  0  0
  1  2  1  0  0  0  0 
  2  3  2  0  0  0  0 
  3  4  1  0  0  0  0 
  4  5  2  0  0  0  0 
  5  6  1  0  0  0  0 
  6  7  2  0  0  0  0 
  2  7  1  0  0  0  0 
  6  8  1  0  0  0  0 
  8  9  1  0  0  0  0 
  9 10  2  0  0  0  0 
 10 11  1  0  0  0  0 
 11 12  2  0  0  0  0 
  8 12  1  0  0  0  0 
 11 13  1  0  0  0  0 
  5 14  1  0  0  0  0 
 14 15  2  0  0  0  0 
 14 16  1  0  0  0  0 
 16 17  1  0  0  0  0 
 17 18  1  0  0  0  0 
 18 19  1  0  0  0  0 
 19 20  1  0  0  0  0 
 20 21  1  0  0  0  0 
 16 21  1  0  0  0  0 
 21 22  1  6  0  0  0 
 22 23  1  0  0  0  0 
 23 24  2  0  0  0  0 
 24 25  1  0  0  0  0 
 25 26  2  0  0  0  0 
 26 27  1  0  0  0  0 
 27 28  2  0  0  0  0 
 23 28  1  0  0  0  0 
 27 29  1  0  0  0  0 
 29 30  1  0  0  0  0 
 30 31  2  0  0  0  0 
 31 32  1  0  0  0  0 
 32 33  2  0  0  0  0 
 29 33  1  0  0  0  0 
M  END
> <Rank>
2

> <Priority_score>
1.34

> <Reaction_type>
aromatic hydroxylation

> <Parent_ID>
1

> <Parent_InChI>
InChI=1S/C23H23N7O2/c1-17-5-6-21(22(13-17)30-26-9-10-27-30)23(31)28-11-12-32-16-20(28)15-18-3-2-4-19(14-18)29-24-7-8-25-29/h2-10,13-14,20H,11-12,15-16H2,1H3/t20-/m1/s1

> <Parent_SMILES>
C([H])([H])([H])C1=C([H])C([H])=C(C(=C1[H])N2N=C([H])C([H])=N2)C(=O)N3C([H])([H])C([H])([H])OC([H])([H])[C@@]3([H])C([H])([H])C4=C([H])C([H])=C([H])C(=C4[H])N5N=C([H])C([H])=N5

$$$$
