
  CDK     1104240408

 18 19  0  0  0  0  0  0  0  0999 V2000
   -2.5981    7.5000    0.0000 C   0  0  0  0  0  0  0  0  0  0  0  0
   -2.5981    6.0000    0.0000 C   0  0  0  0  0  0  0  0  0  0  0  0
   -1.2990    5.2500    0.0000 C   0  0  0  0  0  0  0  0  0  0  0  0
   -1.2990    3.7500    0.0000 C   0  0  0  0  0  0  0  0  0  0  0  0
   -2.5981    3.0000    0.0000 O   0  0  0  0  0  0  0  0  0  0  0  0
    0.0000    3.0000    0.0000 N   0  0  0  0  0  0  0  0  0  0  0  0
    1.2990    3.7500    0.0000 C   0  0  0  0  0  0  0  0  0  0  0  0
    2.5986    2.9992    0.0000 C   0  0  0  0  0  0  0  0  0  0  0  0
    3.8976    3.7492    0.0000 C   0  0  0  0  0  0  0  0  0  0  0  0
    3.8971    5.2500    0.0000 C   0  0  0  0  0  0  0  0  0  0  0  0
    2.5976    6.0008    0.0000 C   0  0  0  0  0  0  0  0  0  0  0  0
    1.2986    5.2508    0.0000 C   0  0  0  0  0  0  0  0  0  0  0  0
   -0.0000    1.5000    0.0000 C   0  0  0  0  0  0  0  0  0  0  0  0
   -1.3000    0.7500    0.0000 C   0  0  0  0  0  0  0  0  0  0  0  0
   -1.3000   -0.7500    0.0000 C   0  0  0  0  0  0  0  0  0  0  0  0
   -0.0000   -1.5000    0.0000 N   0  0  0  0  0  0  0  0  0  0  0  0
    1.3000   -0.7500    0.0000 C   0  0  0  0  0  0  0  0  0  0  0  0
    1.3000    0.7500    0.0000 C   0  0  0  0  0  0  0  0  0  0  0  0
  1  2  1  0  0  0  0 
  2  3  1  0  0  0  0 
  3  4  1  0  0  0  0 
  4  5  2  0  0  0  0 
  4  6  1  0  0  0  0 
  6  7  1  0  0  0  0 
  7  8  2  0  0  0  0 
  8  9  1  0  0  0  0 
  9 10  2  0  0  0  0 
 10 11  1  0  0  0  0 
 11 12  2  0  0  0  0 
  7 12  1  0  0  0  0 
  6 13  1  0  0  0  0 
 13 14  1  0  0  0  0 
 14 15  1  0  0  0  0 
 15 16  1  0  0  0  0 
 16 17  1  0  0  0  0 
 17 18  1  0  0  0  0 
 13 18  1  0  0  0  0 
M  END
> <Rank>
1

> <Priority_score>
4.050000000000001

> <Reaction_type>
N-dealkylation

> <Parent_ID>
1

> <Parent_InChI>
InChI=1S/C23H30N2O/c1-2-9-23(26)25(21-12-7-4-8-13-21)22-15-18-24(19-16-22)17-14-20-10-5-3-6-11-20/h3-8,10-13,22H,2,9,14-19H2,1H3

> <Parent_SMILES>
C([H])([H])([H])C([H])([H])C([H])([H])C(=O)N(C1=C([H])C([H])=C([H])C([H])=C1[H])C2([H])C([H])([H])C([H])([H])N(C([H])([H])C([H])([H])C3=C([H])C([H])=C([H])C([H])=C3[H])C([H])([H])C2([H])[H]

$$$$

  CDK     1104240408

 27 29  0  0  0  0  0  0  0  0999 V2000
    5.8456    6.3748    0.0000 C   0  0  0  0  0  0  0  0  0  0  0  0
    4.5465    5.6248    0.0000 C   0  0  0  0  0  0  0  0  0  0  0  0
    4.5465    4.1248    0.0000 C   0  0  0  0  0  0  0  0  0  0  0  0
    3.2475    3.3748    0.0000 C   0  0  0  0  0  0  0  0  0  0  0  0
    1.9484    4.1248    0.0000 O   0  0  0  0  0  0  0  0  0  0  0  0
    3.2475    1.8748    0.0000 N   0  0  0  0  0  0  0  0  0  0  0  0
    4.5465    1.1248    0.0000 C   0  0  0  0  0  0  0  0  0  0  0  0
    4.5460   -0.3760    0.0000 C   0  0  0  0  0  0  0  0  0  0  0  0
    5.8451   -1.1260    0.0000 C   0  0  0  0  0  0  0  0  0  0  0  0
    7.1446   -0.3752    0.0000 C   0  0  0  0  0  0  0  0  0  0  0  0
    7.1451    1.1256    0.0000 C   0  0  0  0  0  0  0  0  0  0  0  0
    5.8460    1.8756    0.0000 C   0  0  0  0  0  0  0  0  0  0  0  0
    1.9484    1.1248    0.0000 C   0  0  0  0  0  0  0  0  0  0  0  0
    0.6489    1.8756    0.0000 C   0  0  0  0  0  0  0  0  0  0  0  0
   -0.6501    1.1256    0.0000 C   0  0  0  0  0  0  0  0  0  0  0  0
   -0.6496   -0.3752    0.0000 N   0  0  0  0  0  0  0  0  0  0  0  0
    0.6499   -1.1260    0.0000 C   0  0  0  0  0  0  0  0  0  0  0  0
    1.9489   -0.3760    0.0000 C   0  0  0  0  0  0  0  0  0  0  0  0
   -1.9487   -1.1252    0.0000 C   0  0  0  0  0  0  0  0  0  0  0  0
   -3.2477   -0.3752    0.0000 C   0  0  0  0  0  0  0  0  0  0  0  0
   -4.5468   -1.1252    0.0000 C   0  0  0  0  0  0  0  0  0  0  0  0
   -4.5463   -2.6260    0.0000 C   0  0  0  0  0  0  0  0  0  0  0  0
   -5.8453   -3.3760    0.0000 C   0  0  0  0  0  0  0  0  0  0  0  0
   -7.1448   -2.6252    0.0000 C   0  0  0  0  0  0  0  0  0  0  0  0
   -7.1453   -1.1244    0.0000 C   0  0  0  0  0  0  0  0  0  0  0  0
   -5.8463   -0.3744    0.0000 C   0  0  0  0  0  0  0  0  0  0  0  0
   -1.9487   -2.6252    0.0000 O   0  0  0  0  0  0  0  0  0  0  0  0
  1  2  1  0  0  0  0 
  2  3  1  0  0  0  0 
  3  4  1  0  0  0  0 
  4  5  2  0  0  0  0 
  4  6  1  0  0  0  0 
  6  7  1  0  0  0  0 
  7  8  2  0  0  0  0 
  8  9  1  0  0  0  0 
  9 10  2  0  0  0  0 
 10 11  1  0  0  0  0 
 11 12  2  0  0  0  0 
  7 12  1  0  0  0  0 
  6 13  1  0  0  0  0 
 13 14  1  0  0  0  0 
 14 15  1  0  0  0  0 
 15 16  1  0  0  0  0 
 16 17  1  0  0  0  0 
 17 18  1  0  0  0  0 
 13 18  1  0  0  0  0 
 16 19  1  0  0  0  0 
 19 20  1  0  0  0  0 
 20 21  1  0  0  0  0 
 21 22  2  0  0  0  0 
 22 23  1  0  0  0  0 
 23 24  2  0  0  0  0 
 24 25  1  0  0  0  0 
 25 26  2  0  0  0  0 
 21 26  1  0  0  0  0 
 19 27  1  0  0  0  0 
M  END
> <Rank>
1

> <Priority_score>
4.050000000000001

> <Reaction_type>
aliphatic hydroxylation

> <Parent_ID>
1

> <Parent_InChI>
InChI=1S/C23H30N2O/c1-2-9-23(26)25(21-12-7-4-8-13-21)22-15-18-24(19-16-22)17-14-20-10-5-3-6-11-20/h3-8,10-13,22H,2,9,14-19H2,1H3

> <Parent_SMILES>
C([H])([H])([H])C([H])([H])C([H])([H])C(=O)N(C1=C([H])C([H])=C([H])C([H])=C1[H])C2([H])C([H])([H])C([H])([H])N(C([H])([H])C([H])([H])C3=C([H])C([H])=C([H])C([H])=C3[H])C([H])([H])C2([H])[H]

$$$$

  CDK     1104240408

  9  9  0  0  0  0  0  0  0  0999 V2000
   -2.9228    3.1325    0.0000 C   0  0  0  0  0  0  0  0  0  0  0  0
   -2.9233    1.6317    0.0000 C   0  0  0  0  0  0  0  0  0  0  0  0
   -1.6243    0.8817    0.0000 C   0  0  0  0  0  0  0  0  0  0  0  0
   -0.3248    1.6325    0.0000 C   0  0  0  0  0  0  0  0  0  0  0  0
   -0.3243    3.1333    0.0000 C   0  0  0  0  0  0  0  0  0  0  0  0
   -1.6233    3.8833    0.0000 C   0  0  0  0  0  0  0  0  0  0  0  0
    0.9743    0.8825    0.0000 C   0  0  0  0  0  0  0  0  0  0  0  0
    2.2733    1.6325    0.0000 C   0  0  0  0  0  0  0  0  0  0  0  0
    3.5724    0.8825    0.0000 O   0  0  0  0  0  0  0  0  0  0  0  0
  1  2  2  0  0  0  0 
  2  3  1  0  0  0  0 
  3  4  2  0  0  0  0 
  4  5  1  0  0  0  0 
  5  6  2  0  0  0  0 
  1  6  1  0  0  0  0 
  4  7  1  0  0  0  0 
  7  8  1  0  0  0  0 
  8  9  2  0  0  0  0 
M  END
> <Rank>
1

> <Priority_score>
4.050000000000001

> <Reaction_type>
N-dealkylation

> <Parent_ID>
1

> <Parent_InChI>
InChI=1S/C23H30N2O/c1-2-9-23(26)25(21-12-7-4-8-13-21)22-15-18-24(19-16-22)17-14-20-10-5-3-6-11-20/h3-8,10-13,22H,2,9,14-19H2,1H3

> <Parent_SMILES>
C([H])([H])([H])C([H])([H])C([H])([H])C(=O)N(C1=C([H])C([H])=C([H])C([H])=C1[H])C2([H])C([H])([H])C([H])([H])N(C([H])([H])C([H])([H])C3=C([H])C([H])=C([H])C([H])=C3[H])C([H])([H])C2([H])[H]

$$$$

  CDK     1104240408

 27 29  0  0  0  0  0  0  0  0999 V2000
    5.3220    5.9508    0.0000 C   0  0  0  0  0  0  0  0  0  0  0  0
    4.0229    5.2008    0.0000 C   0  0  0  0  0  0  0  0  0  0  0  0
    4.0229    3.7008    0.0000 C   0  0  0  0  0  0  0  0  0  0  0  0
    2.7239    2.9508    0.0000 C   0  0  0  0  0  0  0  0  0  0  0  0
    1.4248    3.7008    0.0000 O   0  0  0  0  0  0  0  0  0  0  0  0
    2.7239    1.4508    0.0000 N   0  0  0  0  0  0  0  0  0  0  0  0
    4.0229    0.7008    0.0000 C   0  0  0  0  0  0  0  0  0  0  0  0
    4.0224   -0.8000    0.0000 C   0  0  0  0  0  0  0  0  0  0  0  0
    5.3215   -1.5500    0.0000 C   0  0  0  0  0  0  0  0  0  0  0  0
    6.6210   -0.7992    0.0000 C   0  0  0  0  0  0  0  0  0  0  0  0
    6.6215    0.7016    0.0000 C   0  0  0  0  0  0  0  0  0  0  0  0
    5.3224    1.4516    0.0000 C   0  0  0  0  0  0  0  0  0  0  0  0
    1.4248    0.7008    0.0000 C   0  0  0  0  0  0  0  0  0  0  0  0
    0.1253    1.4516    0.0000 C   0  0  0  0  0  0  0  0  0  0  0  0
   -1.1737    0.7016    0.0000 C   0  0  0  0  0  0  0  0  0  0  0  0
   -1.1732   -0.7992    0.0000 N   0  0  0  0  0  0  0  0  0  0  0  0
   -2.6505   -0.5389    0.0000 C   0  0  0  0  0  0  0  0  0  0  0  0
   -3.6145   -1.6880    0.0000 C   0  0  0  0  0  0  0  0  0  0  0  0
   -5.0918   -1.4277    0.0000 C   0  0  0  0  0  0  0  0  0  0  0  0
   -6.0560   -2.5778    0.0000 C   0  0  0  0  0  0  0  0  0  0  0  0
   -7.5332   -2.3175    0.0000 C   0  0  0  0  0  0  0  0  0  0  0  0
   -8.0462   -0.9071    0.0000 C   0  0  0  0  0  0  0  0  0  0  0  0
   -7.0820    0.2430    0.0000 C   0  0  0  0  0  0  0  0  0  0  0  0
   -5.6048   -0.0173    0.0000 C   0  0  0  0  0  0  0  0  0  0  0  0
    0.1263   -1.5500    0.0000 C   0  0  0  0  0  0  0  0  0  0  0  0
    1.4253   -0.8000    0.0000 C   0  0  0  0  0  0  0  0  0  0  0  0
   -1.6864   -2.2087    0.0000 O   0  0  0  0  0  0  0  0  0  0  0  0
  1  2  1  0  0  0  0 
  2  3  1  0  0  0  0 
  3  4  1  0  0  0  0 
  4  5  2  0  0  0  0 
  4  6  1  0  0  0  0 
  6  7  1  0  0  0  0 
  7  8  2  0  0  0  0 
  8  9  1  0  0  0  0 
  9 10  2  0  0  0  0 
 10 11  1  0  0  0  0 
 11 12  2  0  0  0  0 
  7 12  1  0  0  0  0 
  6 13  1  0  0  0  0 
 13 14  1  0  0  0  0 
 14 15  1  0  0  0  0 
 15 16  1  0  0  0  0 
 16 17  1  0  0  0  0 
 17 18  1  0  0  0  0 
 18 19  1  0  0  0  0 
 19 20  2  0  0  0  0 
 20 21  1  0  0  0  0 
 21 22  2  0  0  0  0 
 22 23  1  0  0  0  0 
 23 24  2  0  0  0  0 
 19 24  1  0  0  0  0 
 16 25  1  0  0  0  0 
 25 26  1  0  0  0  0 
 13 26  1  0  0  0  0 
 16 27  1  0  0  0  0 
M  CHG  1  16   1
M  CHG  1  27  -1
M  END
> <Rank>
1

> <Priority_score>
4.050000000000001

> <Reaction_type>
N-oxidation

> <Parent_ID>
1

> <Parent_InChI>
InChI=1S/C23H30N2O/c1-2-9-23(26)25(21-12-7-4-8-13-21)22-15-18-24(19-16-22)17-14-20-10-5-3-6-11-20/h3-8,10-13,22H,2,9,14-19H2,1H3

> <Parent_SMILES>
C([H])([H])([H])C([H])([H])C([H])([H])C(=O)N(C1=C([H])C([H])=C([H])C([H])=C1[H])C2([H])C([H])([H])C([H])([H])N(C([H])([H])C([H])([H])C3=C([H])C([H])=C([H])C([H])=C3[H])C([H])([H])C2([H])[H]

$$$$

  CDK     1104240408

 27 29  0  0  0  0  0  0  0  0999 V2000
    6.1707    6.9380    0.0000 C   0  0  0  0  0  0  0  0  0  0  0  0
    4.8717    6.1880    0.0000 C   0  0  0  0  0  0  0  0  0  0  0  0
    4.8717    4.6880    0.0000 C   0  0  0  0  0  0  0  0  0  0  0  0
    3.5727    3.9380    0.0000 C   0  0  0  0  0  0  0  0  0  0  0  0
    2.2736    4.6880    0.0000 O   0  0  0  0  0  0  0  0  0  0  0  0
    3.5727    2.4380    0.0000 N   0  0  0  0  0  0  0  0  0  0  0  0
    4.8717    1.6880    0.0000 C   0  0  0  0  0  0  0  0  0  0  0  0
    6.1709    2.4378    0.0000 C   0  0  0  0  0  0  0  0  0  0  0  0
    7.4703    1.6868    0.0000 C   0  0  0  0  0  0  0  0  0  0  0  0
    7.4705    0.1859    0.0000 C   0  0  0  0  0  0  0  0  0  0  0  0
    6.1713   -0.5639    0.0000 C   0  0  0  0  0  0  0  0  0  0  0  0
    4.8719    0.1872    0.0000 C   0  0  0  0  0  0  0  0  0  0  0  0
    8.7695   -0.5641    0.0000 O   0  0  0  0  0  0  0  0  0  0  0  0
    2.2736    1.6880    0.0000 C   0  0  0  0  0  0  0  0  0  0  0  0
    0.9741    2.4389    0.0000 C   0  0  0  0  0  0  0  0  0  0  0  0
   -0.3249    1.6889    0.0000 C   0  0  0  0  0  0  0  0  0  0  0  0
   -0.3245    0.1880    0.0000 N   0  0  0  0  0  0  0  0  0  0  0  0
   -1.6235   -0.5620    0.0000 C   0  0  0  0  0  0  0  0  0  0  0  0
   -2.9225    0.1880    0.0000 C   0  0  0  0  0  0  0  0  0  0  0  0
   -4.2216   -0.5620    0.0000 C   0  0  0  0  0  0  0  0  0  0  0  0
   -4.2211   -2.0628    0.0000 C   0  0  0  0  0  0  0  0  0  0  0  0
   -5.5201   -2.8128    0.0000 C   0  0  0  0  0  0  0  0  0  0  0  0
   -6.8196   -2.0620    0.0000 C   0  0  0  0  0  0  0  0  0  0  0  0
   -6.8201   -0.5611    0.0000 C   0  0  0  0  0  0  0  0  0  0  0  0
   -5.5211    0.1889    0.0000 C   0  0  0  0  0  0  0  0  0  0  0  0
    0.9751   -0.5628    0.0000 C   0  0  0  0  0  0  0  0  0  0  0  0
    2.2741    0.1872    0.0000 C   0  0  0  0  0  0  0  0  0  0  0  0
  1  2  1  0  0  0  0 
  2  3  1  0  0  0  0 
  3  4  1  0  0  0  0 
  4  5  2  0  0  0  0 
  4  6  1  0  0  0  0 
  6  7  1  0  0  0  0 
  7  8  2  0  0  0  0 
  8  9  1  0  0  0  0 
  9 10  2  0  0  0  0 
 10 11  1  0  0  0  0 
 11 12  2  0  0  0  0 
  7 12  1  0  0  0  0 
 10 13  1  0  0  0  0 
  6 14  1  0  0  0  0 
 14 15  1  0  0  0  0 
 15 16  1  0  0  0  0 
 16 17  1  0  0  0  0 
 17 18  1  0  0  0  0 
 18 19  1  0  0  0  0 
 19 20  1  0  0  0  0 
 20 21  2  0  0  0  0 
 21 22  1  0  0  0  0 
 22 23  2  0  0  0  0 
 23 24  1  0  0  0  0 
 24 25  2  0  0  0  0 
 20 25  1  0  0  0  0 
 17 26  1  0  0  0  0 
 26 27  1  0  0  0  0 
 14 27  1  0  0  0  0 
M  END
> <Rank>
5

> <Priority_score>
1.06

> <Reaction_type>
aromatic hydroxylation

> <Parent_ID>
1

> <Parent_InChI>
InChI=1S/C23H30N2O/c1-2-9-23(26)25(21-12-7-4-8-13-21)22-15-18-24(19-16-22)17-14-20-10-5-3-6-11-20/h3-8,10-13,22H,2,9,14-19H2,1H3

> <Parent_SMILES>
C([H])([H])([H])C([H])([H])C([H])([H])C(=O)N(C1=C([H])C([H])=C([H])C([H])=C1[H])C2([H])C([H])([H])C([H])([H])N(C([H])([H])C([H])([H])C3=C([H])C([H])=C([H])C([H])=C3[H])C([H])([H])C2([H])[H]

$$$$

  CDK     1104240408

 26 28  0  0  0  0  0  0  0  0999 V2000
    5.8456    6.3748    0.0000 C   0  0  0  0  0  0  0  0  0  0  0  0
    4.5465    5.6248    0.0000 C   0  0  0  0  0  0  0  0  0  0  0  0
    4.5465    4.1248    0.0000 C   0  0  0  0  0  0  0  0  0  0  0  0
    3.2475    3.3748    0.0000 C   0  0  0  0  0  0  0  0  0  0  0  0
    1.9484    4.1248    0.0000 O   0  0  0  0  0  0  0  0  0  0  0  0
    3.2475    1.8748    0.0000 N   0  0  0  0  0  0  0  0  0  0  0  0
    4.5465    1.1248    0.0000 C   0  0  0  0  0  0  0  0  0  0  0  0
    4.5460   -0.3760    0.0000 C   0  0  0  0  0  0  0  0  0  0  0  0
    5.8451   -1.1260    0.0000 C   0  0  0  0  0  0  0  0  0  0  0  0
    7.1446   -0.3752    0.0000 C   0  0  0  0  0  0  0  0  0  0  0  0
    7.1451    1.1256    0.0000 C   0  0  0  0  0  0  0  0  0  0  0  0
    5.8460    1.8756    0.0000 C   0  0  0  0  0  0  0  0  0  0  0  0
    1.9484    1.1248    0.0000 C   0  0  0  0  0  0  0  0  0  0  0  0
    0.6489    1.8756    0.0000 C   0  0  0  0  0  0  0  0  0  0  0  0
   -0.6501    1.1256    0.0000 C   0  0  0  0  0  0  0  0  0  0  0  0
   -0.6496   -0.3752    0.0000 N   0  0  0  0  0  0  0  0  0  0  0  0
   -1.9487   -1.1252    0.0000 C   0  0  0  0  0  0  0  0  0  0  0  0
   -3.2477   -0.3752    0.0000 C   0  0  0  0  0  0  0  0  0  0  0  0
   -4.5468   -1.1252    0.0000 C   0  0  0  0  0  0  0  0  0  0  0  0
   -4.5463   -2.6260    0.0000 C   0  0  0  0  0  0  0  0  0  0  0  0
   -5.8453   -3.3760    0.0000 C   0  0  0  0  0  0  0  0  0  0  0  0
   -7.1448   -2.6252    0.0000 C   0  0  0  0  0  0  0  0  0  0  0  0
   -7.1453   -1.1244    0.0000 C   0  0  0  0  0  0  0  0  0  0  0  0
   -5.8463   -0.3744    0.0000 C   0  0  0  0  0  0  0  0  0  0  0  0
    0.6499   -1.1260    0.0000 C   0  0  0  0  0  0  0  0  0  0  0  0
    1.9489   -0.3760    0.0000 C   0  0  0  0  0  0  0  0  0  0  0  0
  1  2  1  0  0  0  0 
  2  3  1  0  0  0  0 
  3  4  1  0  0  0  0 
  4  5  2  0  0  0  0 
  4  6  1  0  0  0  0 
  6  7  1  0  0  0  0 
  7  8  2  0  0  0  0 
  8  9  1  0  0  0  0 
  9 10  2  0  0  0  0 
 10 11  1  0  0  0  0 
 11 12  2  0  0  0  0 
  7 12  1  0  0  0  0 
  6 13  1  0  0  0  0 
 13 14  1  0  0  0  0 
 14 15  1  0  0  0  0 
 15 16  1  0  0  0  0 
 16 17  2  0  0  0  0 
 17 18  1  4  0  0  0 
 18 19  1  0  0  0  0 
 19 20  2  0  0  0  0 
 20 21  1  0  0  0  0 
 21 22  2  0  0  0  0 
 22 23  1  0  0  0  0 
 23 24  2  0  0  0  0 
 19 24  1  0  0  0  0 
 16 25  1  0  0  0  0 
 25 26  1  0  0  0  0 
 13 26  1  0  0  0  0 
M  CHG  1  16   1
M  END
> <Rank>
6

> <Priority_score>
0.81

> <Reaction_type>
dehydration of N-C bond

> <Parent_ID>
1

> <Parent_InChI>
InChI=1S/C23H30N2O/c1-2-9-23(26)25(21-12-7-4-8-13-21)22-15-18-24(19-16-22)17-14-20-10-5-3-6-11-20/h3-8,10-13,22H,2,9,14-19H2,1H3

> <Parent_SMILES>
C([H])([H])([H])C([H])([H])C([H])([H])C(=O)N(C1=C([H])C([H])=C([H])C([H])=C1[H])C2([H])C([H])([H])C([H])([H])N(C([H])([H])C([H])([H])C3=C([H])C([H])=C([H])C([H])=C3[H])C([H])([H])C2([H])[H]

$$$$

  CDK     1104240408

 26 28  0  0  0  0  0  0  0  0999 V2000
    5.8456    6.3748    0.0000 C   0  0  0  0  0  0  0  0  0  0  0  0
    4.5465    5.6248    0.0000 C   0  0  0  0  0  0  0  0  0  0  0  0
    4.5465    4.1248    0.0000 C   0  0  0  0  0  0  0  0  0  0  0  0
    3.2475    3.3748    0.0000 C   0  0  0  0  0  0  0  0  0  0  0  0
    1.9484    4.1248    0.0000 O   0  0  0  0  0  0  0  0  0  0  0  0
    3.2475    1.8748    0.0000 N   0  0  0  0  0  0  0  0  0  0  0  0
    4.5465    1.1248    0.0000 C   0  0  0  0  0  0  0  0  0  0  0  0
    4.5460   -0.3760    0.0000 C   0  0  0  0  0  0  0  0  0  0  0  0
    5.8451   -1.1260    0.0000 C   0  0  0  0  0  0  0  0  0  0  0  0
    7.1446   -0.3752    0.0000 C   0  0  0  0  0  0  0  0  0  0  0  0
    7.1451    1.1256    0.0000 C   0  0  0  0  0  0  0  0  0  0  0  0
    5.8460    1.8756    0.0000 C   0  0  0  0  0  0  0  0  0  0  0  0
    1.9484    1.1248    0.0000 C   0  0  0  0  0  0  0  0  0  0  0  0
    0.6489    1.8756    0.0000 C   0  0  0  0  0  0  0  0  0  0  0  0
   -0.6501    1.1256    0.0000 C   0  0  0  0  0  0  0  0  0  0  0  0
   -0.6496   -0.3752    0.0000 N   0  0  0  0  0  0  0  0  0  0  0  0
   -1.9487   -1.1252    0.0000 C   0  0  0  0  0  0  0  0  0  0  0  0
   -3.2477   -0.3752    0.0000 C   0  0  0  0  0  0  0  0  0  0  0  0
   -4.5468   -1.1252    0.0000 C   0  0  0  0  0  0  0  0  0  0  0  0
   -4.5463   -2.6260    0.0000 C   0  0  0  0  0  0  0  0  0  0  0  0
   -5.8453   -3.3760    0.0000 C   0  0  0  0  0  0  0  0  0  0  0  0
   -7.1448   -2.6252    0.0000 C   0  0  0  0  0  0  0  0  0  0  0  0
   -7.1453   -1.1244    0.0000 C   0  0  0  0  0  0  0  0  0  0  0  0
   -5.8463   -0.3744    0.0000 C   0  0  0  0  0  0  0  0  0  0  0  0
    0.6499   -1.1260    0.0000 C   0  0  0  0  0  0  0  0  0  0  0  0
    1.9489   -0.3760    0.0000 C   0  0  0  0  0  0  0  0  0  0  0  0
  1  2  1  0  0  0  0 
  2  3  1  0  0  0  0 
  3  4  1  0  0  0  0 
  4  5  2  0  0  0  0 
  4  6  1  0  0  0  0 
  6  7  1  0  0  0  0 
  7  8  2  0  0  0  0 
  8  9  1  0  0  0  0 
  9 10  2  0  0  0  0 
 10 11  1  0  0  0  0 
 11 12  2  0  0  0  0 
  7 12  1  0  0  0  0 
  6 13  1  0  0  0  0 
 13 14  1  0  0  0  0 
 14 15  1  0  0  0  0 
 15 16  1  0  0  0  0 
 16 17  1  4  0  0  0 
 17 18  2  0  0  0  0 
 18 19  1  0  0  0  0 
 19 20  2  0  0  0  0 
 20 21  1  0  0  0  0 
 21 22  2  0  0  0  0 
 22 23  1  0  0  0  0 
 23 24  2  0  0  0  0 
 19 24  1  0  0  0  0 
 16 25  1  0  0  0  0 
 25 26  1  0  0  0  0 
 13 26  1  0  0  0  0 
M  END
> <Rank>
6

> <Priority_score>
0.81

> <Reaction_type>
alkyl dehydrogenation

> <Parent_ID>
1

> <Parent_InChI>
InChI=1S/C23H30N2O/c1-2-9-23(26)25(21-12-7-4-8-13-21)22-15-18-24(19-16-22)17-14-20-10-5-3-6-11-20/h3-8,10-13,22H,2,9,14-19H2,1H3

> <Parent_SMILES>
C([H])([H])([H])C([H])([H])C([H])([H])C(=O)N(C1=C([H])C([H])=C([H])C([H])=C1[H])C2([H])C([H])([H])C([H])([H])N(C([H])([H])C([H])([H])C3=C([H])C([H])=C([H])C([H])=C3[H])C([H])([H])C2([H])[H]

$$$$
