
  CDK     1104240433

 22 23  0  0  0  0  0  0  0  0999 V2000
    3.4342   -3.4886    0.0000 C   0  0  0  0  0  0  0  0  0  0  0  0
    2.3218   -2.4823    0.0000 C   0  0  0  0  0  0  0  0  0  0  0  0
    2.6377   -1.0151    0.0000 C   0  0  0  0  0  0  0  0  0  0  0  0
    1.5254   -0.0088    0.0000 C   0  0  0  0  0  0  0  0  0  0  0  0
    0.0971   -0.4697    0.0000 C   0  0  0  0  0  0  0  0  0  0  0  0
   -0.2189   -1.9369    0.0000 C   0  0  0  0  0  0  0  0  0  0  0  0
    0.8935   -2.9432    0.0000 C   0  0  0  0  0  0  0  0  0  0  0  0
   -1.6466   -2.3969    0.0000 C   0  0  0  0  0  0  0  0  0  0  0  0
   -2.1066   -3.8169    0.0000 C   0  0  0  0  0  0  0  0  0  0  0  0
   -1.2244   -5.0300    0.0000 Cl  0  0  0  0  0  0  0  0  0  0  0  0
   -3.6066   -3.8169    0.0000 N   0  0  0  0  0  0  0  0  0  0  0  0
   -4.0666   -2.3969    0.0000 C   0  0  0  0  0  0  0  0  0  0  0  0
   -5.4943   -1.9369    0.0000 C   0  0  0  0  0  0  0  0  0  0  0  0
   -6.9221   -1.4769    0.0000 N   0  0  0  0  0  0  0  0  0  0  0  0
   -2.8566   -1.5069    0.0000 N   0  0  0  0  0  0  0  0  0  0  0  0
   -2.8566   -0.0069    0.0000 S   0  0  0  0  0  0  0  0  0  0  0  0
   -1.3794   -0.2673    0.0000 O   0  0  0  0  0  0  0  0  0  0  0  0
   -2.3436    1.4027    0.0000 O   0  0  0  0  0  0  0  0  0  0  0  0
   -4.1556    0.7431    0.0000 N   0  0  0  0  0  0  0  0  0  0  0  0
   -4.1556    2.2431    0.0000 C   0  0  0  0  0  0  0  0  0  0  0  0
   -5.4547   -0.0069    0.0000 C   0  0  0  0  0  0  0  0  0  0  0  0
    4.0655   -0.5551    0.0000 O   0  0  0  0  0  0  0  0  0  0  0  0
  1  2  1  0  0  0  0 
  2  3  2  0  0  0  0 
  3  4  1  0  0  0  0 
  4  5  2  0  0  0  0 
  5  6  1  0  0  0  0 
  6  7  2  0  0  0  0 
  2  7  1  0  0  0  0 
  6  8  1  0  0  0  0 
  8  9  2  0  0  0  0 
  9 10  1  0  0  0  0 
  9 11  1  0  0  0  0 
 11 12  2  0  0  0  0 
 12 13  1  0  0  0  0 
 13 14  3  0  0  0  0 
 12 15  1  0  0  0  0 
  8 15  1  0  0  0  0 
 15 16  1  0  0  0  0 
 16 17  2  0  0  0  0 
 16 18  2  0  0  0  0 
 16 19  1  0  0  0  0 
 19 20  1  0  0  0  0 
 19 21  1  0  0  0  0 
  3 22  1  0  0  0  0 
M  END
> <Rank>
1

> <Priority_score>
4.61

> <Reaction_type>
aromatic hydroxylation with nih shift

> <Parent_ID>
1

> <Parent_InChI>
InChI=1S/C13H13ClN4O2S/c1-9-4-6-10(7-5-9)12-13(14)16-11(8-15)18(12)21(19,20)17(2)3/h4-7H,1-3H3

> <Parent_SMILES>
C([H])([H])([H])C1=C([H])C([H])=C(C([H])=C1[H])C2=C(Cl)N=C(C#N)N2S(=O)(=O)N(C([H])([H])[H])C([H])([H])[H]

$$$$

  CDK     1104240433

 22 23  0  0  0  0  0  0  0  0999 V2000
    4.0061    3.2988    0.0000 C   0  0  0  0  0  0  0  0  0  0  0  0
    3.1239    2.0857    0.0000 N   0  0  0  0  0  0  0  0  0  0  0  0
    3.7334    0.7151    0.0000 C   0  0  0  0  0  0  0  0  0  0  0  0
    1.6322    2.2431    0.0000 S   0  0  0  0  0  0  0  0  0  0  0  0
    2.0463    3.6848    0.0000 O   0  0  0  0  0  0  0  0  0  0  0  0
    0.2843    2.9013    0.0000 O   0  0  0  0  0  0  0  0  0  0  0  0
    0.7500    1.0300    0.0000 N   0  0  0  0  0  0  0  0  0  0  0  0
    1.2100   -0.3900    0.0000 C   0  0  0  0  0  0  0  0  0  0  0  0
    0.0000   -1.2800    0.0000 N   0  0  0  0  0  0  0  0  0  0  0  0
   -1.2100   -0.3900    0.0000 C   0  0  0  0  0  0  0  0  0  0  0  0
   -0.7500    1.0300    0.0000 C   0  0  0  0  0  0  0  0  0  0  0  0
   -1.6322    2.2431    0.0000 C   0  0  0  0  0  0  0  0  0  0  0  0
   -1.0271    3.5599    0.0000 C   0  0  0  0  0  0  0  0  0  0  0  0
   -1.8497    4.7903    0.0000 C   0  0  0  0  0  0  0  0  0  0  0  0
   -3.3377    4.6147    0.0000 C   0  0  0  0  0  0  0  0  0  0  0  0
   -3.9428    3.2979    0.0000 C   0  0  0  0  0  0  0  0  0  0  0  0
   -3.1202    2.0675    0.0000 C   0  0  0  0  0  0  0  0  0  0  0  0
   -4.2199    5.8278    0.0000 C   0  0  0  0  0  0  0  0  0  0  0  0
   -5.7116    5.6704    0.0000 O   0  0  0  0  0  0  0  0  0  0  0  0
   -2.6377   -0.8500    0.0000 Cl  0  0  0  0  0  0  0  0  0  0  0  0
    2.6377   -0.8500    0.0000 C   0  0  0  0  0  0  0  0  0  0  0  0
    4.0655   -1.3099    0.0000 N   0  0  0  0  0  0  0  0  0  0  0  0
  1  2  1  0  0  0  0 
  2  3  1  0  0  0  0 
  2  4  1  0  0  0  0 
  4  5  2  0  0  0  0 
  4  6  2  0  0  0  0 
  4  7  1  0  0  0  0 
  7  8  1  0  0  0  0 
  8  9  2  0  0  0  0 
  9 10  1  0  0  0  0 
 10 11  2  0  0  0  0 
  7 11  1  0  0  0  0 
 11 12  1  0  0  0  0 
 12 13  2  0  0  0  0 
 13 14  1  0  0  0  0 
 14 15  2  0  0  0  0 
 15 16  1  0  0  0  0 
 16 17  2  0  0  0  0 
 12 17  1  0  0  0  0 
 15 18  1  0  0  0  0 
 18 19  1  0  0  0  0 
 10 20  1  0  0  0  0 
  8 21  1  0  0  0  0 
 21 22  3  0  0  0  0 
M  END
> <Rank>
1

> <Priority_score>
4.61

> <Reaction_type>
aliphatic hydroxylation

> <Parent_ID>
1

> <Parent_InChI>
InChI=1S/C13H13ClN4O2S/c1-9-4-6-10(7-5-9)12-13(14)16-11(8-15)18(12)21(19,20)17(2)3/h4-7H,1-3H3

> <Parent_SMILES>
C([H])([H])([H])C1=C([H])C([H])=C(C([H])=C1[H])C2=C(Cl)N=C(C#N)N2S(=O)(=O)N(C([H])([H])[H])C([H])([H])[H]

$$$$

  CDK     1104240433

 22 23  0  0  0  0  0  0  0  0999 V2000
    4.0655   -0.5959    0.0000 C   0  0  0  0  0  0  0  0  0  0  0  0
    2.6377   -1.0559    0.0000 C   0  0  0  0  0  0  0  0  0  0  0  0
    1.5753   -0.0704    0.0000 C   0  0  0  0  0  0  0  0  0  0  0  0
    0.1497   -0.4683    0.0000 C   0  0  0  0  0  0  0  0  0  0  0  0
   -0.1473   -1.9369    0.0000 C   0  0  0  0  0  0  0  0  0  0  0  0
    0.9151   -2.9224    0.0000 C   0  0  0  0  0  0  0  0  0  0  0  0
    2.3406   -2.5245    0.0000 C   0  0  0  0  0  0  0  0  0  0  0  0
   -1.5751   -2.3969    0.0000 C   0  0  0  0  0  0  0  0  0  0  0  0
   -2.0351   -3.8169    0.0000 C   0  0  0  0  0  0  0  0  0  0  0  0
   -1.1529   -5.0300    0.0000 Cl  0  0  0  0  0  0  0  0  0  0  0  0
   -3.5351   -3.8169    0.0000 N   0  0  0  0  0  0  0  0  0  0  0  0
   -3.9951   -2.3969    0.0000 C   0  0  0  0  0  0  0  0  0  0  0  0
   -5.4228   -1.9369    0.0000 C   0  0  0  0  0  0  0  0  0  0  0  0
   -6.8506   -1.4769    0.0000 N   0  0  0  0  0  0  0  0  0  0  0  0
   -2.7851   -1.5069    0.0000 N   0  0  0  0  0  0  0  0  0  0  0  0
   -2.7851   -0.0069    0.0000 S   0  0  0  0  0  0  0  0  0  0  0  0
   -1.3079   -0.2673    0.0000 O   0  0  0  0  0  0  0  0  0  0  0  0
   -2.2721    1.4027    0.0000 O   0  0  0  0  0  0  0  0  0  0  0  0
   -4.0841    0.7431    0.0000 N   0  0  0  0  0  0  0  0  0  0  0  0
   -4.0841    2.2431    0.0000 C   0  0  0  0  0  0  0  0  0  0  0  0
   -5.5613    1.0036    0.0000 C   0  0  0  0  0  0  0  0  0  0  0  0
   -4.5971   -0.6664    0.0000 O   0  0  0  0  0  0  0  0  0  0  0  0
  1  2  1  0  0  0  0 
  2  3  2  0  0  0  0 
  3  4  1  0  0  0  0 
  4  5  2  0  0  0  0 
  5  6  1  0  0  0  0 
  6  7  2  0  0  0  0 
  2  7  1  0  0  0  0 
  5  8  1  0  0  0  0 
  8  9  2  0  0  0  0 
  9 10  1  0  0  0  0 
  9 11  1  0  0  0  0 
 11 12  2  0  0  0  0 
 12 13  1  0  0  0  0 
 13 14  3  0  0  0  0 
 12 15  1  0  0  0  0 
  8 15  1  0  0  0  0 
 15 16  1  0  0  0  0 
 16 17  2  0  0  0  0 
 16 18  2  0  0  0  0 
 16 19  1  0  0  0  0 
 19 20  1  0  0  0  0 
 19 21  1  0  0  0  0 
 19 22  1  0  0  0  0 
M  CHG  1  19   1
M  CHG  1  22  -1
M  END
> <Rank>
3

> <Priority_score>
4.21

> <Reaction_type>
N-oxidation

> <Parent_ID>
1

> <Parent_InChI>
InChI=1S/C13H13ClN4O2S/c1-9-4-6-10(7-5-9)12-13(14)16-11(8-15)18(12)21(19,20)17(2)3/h4-7H,1-3H3

> <Parent_SMILES>
C([H])([H])([H])C1=C([H])C([H])=C(C([H])=C1[H])C2=C(Cl)N=C(C#N)N2S(=O)(=O)N(C([H])([H])[H])C([H])([H])[H]

$$$$

  CDK     1104240433

 22 23  0  0  0  0  0  0  0  0999 V2000
   -6.8506   -2.1909    0.0000 C   0  0  0  0  0  0  0  0  0  0  0  0
   -5.4228   -1.7309    0.0000 C   0  0  0  0  0  0  0  0  0  0  0  0
   -4.3604   -2.7165    0.0000 C   0  0  0  0  0  0  0  0  0  0  0  0
   -2.9348   -2.3186    0.0000 C   0  0  0  0  0  0  0  0  0  0  0  0
   -2.6377   -0.8500    0.0000 C   0  0  0  0  0  0  0  0  0  0  0  0
   -3.7002    0.1356    0.0000 C   0  0  0  0  0  0  0  0  0  0  0  0
   -5.1257   -0.2624    0.0000 C   0  0  0  0  0  0  0  0  0  0  0  0
   -1.2100   -0.3900    0.0000 C   0  0  0  0  0  0  0  0  0  0  0  0
   -0.7500    1.0300    0.0000 C   0  0  0  0  0  0  0  0  0  0  0  0
   -1.6322    2.2431    0.0000 Cl  0  0  0  0  0  0  0  0  0  0  0  0
    0.7500    1.0300    0.0000 N   0  0  0  0  0  0  0  0  0  0  0  0
    1.2100   -0.3900    0.0000 C   0  0  0  0  0  0  0  0  0  0  0  0
    2.6377   -0.8500    0.0000 C   0  0  0  0  0  0  0  0  0  0  0  0
    4.0655   -1.3099    0.0000 N   0  0  0  0  0  0  0  0  0  0  0  0
    0.0000   -1.2800    0.0000 N   0  0  0  0  0  0  0  0  0  0  0  0
   -0.0000   -2.7800    0.0000 S   0  0  0  0  0  0  0  0  0  0  0  0
   -1.4772   -2.5195    0.0000 O   0  0  0  0  0  0  0  0  0  0  0  0
   -0.5130   -4.1895    0.0000 O   0  0  0  0  0  0  0  0  0  0  0  0
    1.2990   -3.5300    0.0000 N   0  0  0  0  0  0  0  0  0  0  0  0
    2.5981   -2.7800    0.0000 C   0  0  0  0  0  0  0  0  0  0  0  0
    1.2990   -5.0300    0.0000 C   0  0  0  0  0  0  0  0  0  0  0  0
    2.5981   -5.7800    0.0000 O   0  0  0  0  0  0  0  0  0  0  0  0
  1  2  1  0  0  0  0 
  2  3  2  0  0  0  0 
  3  4  1  0  0  0  0 
  4  5  2  0  0  0  0 
  5  6  1  0  0  0  0 
  6  7  2  0  0  0  0 
  2  7  1  0  0  0  0 
  5  8  1  0  0  0  0 
  8  9  2  0  0  0  0 
  9 10  1  0  0  0  0 
  9 11  1  0  0  0  0 
 11 12  2  0  0  0  0 
 12 13  1  0  0  0  0 
 13 14  3  0  0  0  0 
 12 15  1  0  0  0  0 
  8 15  1  0  0  0  0 
 15 16  1  0  0  0  0 
 16 17  2  0  0  0  0 
 16 18  2  0  0  0  0 
 16 19  1  0  0  0  0 
 19 20  1  0  0  0  0 
 19 21  1  0  0  0  0 
 21 22  1  0  0  0  0 
M  END
> <Rank>
3

> <Priority_score>
4.21

> <Reaction_type>
aliphatic hydroxylation

> <Parent_ID>
1

> <Parent_InChI>
InChI=1S/C13H13ClN4O2S/c1-9-4-6-10(7-5-9)12-13(14)16-11(8-15)18(12)21(19,20)17(2)3/h4-7H,1-3H3

> <Parent_SMILES>
C([H])([H])([H])C1=C([H])C([H])=C(C([H])=C1[H])C2=C(Cl)N=C(C#N)N2S(=O)(=O)N(C([H])([H])[H])C([H])([H])[H]

$$$$

  CDK     1104240433

 20 21  0  0  0  0  0  0  0  0999 V2000
    4.0655   -0.5959    0.0000 C   0  0  0  0  0  0  0  0  0  0  0  0
    2.6377   -1.0559    0.0000 C   0  0  0  0  0  0  0  0  0  0  0  0
    1.5753   -0.0704    0.0000 C   0  0  0  0  0  0  0  0  0  0  0  0
    0.1497   -0.4683    0.0000 C   0  0  0  0  0  0  0  0  0  0  0  0
   -0.1473   -1.9369    0.0000 C   0  0  0  0  0  0  0  0  0  0  0  0
    0.9151   -2.9224    0.0000 C   0  0  0  0  0  0  0  0  0  0  0  0
    2.3406   -2.5245    0.0000 C   0  0  0  0  0  0  0  0  0  0  0  0
   -1.5751   -2.3969    0.0000 C   0  0  0  0  0  0  0  0  0  0  0  0
   -2.0351   -3.8169    0.0000 C   0  0  0  0  0  0  0  0  0  0  0  0
   -1.1529   -5.0300    0.0000 Cl  0  0  0  0  0  0  0  0  0  0  0  0
   -3.5351   -3.8169    0.0000 N   0  0  0  0  0  0  0  0  0  0  0  0
   -3.9951   -2.3969    0.0000 C   0  0  0  0  0  0  0  0  0  0  0  0
   -5.4228   -1.9369    0.0000 C   0  0  0  0  0  0  0  0  0  0  0  0
   -6.8506   -1.4769    0.0000 N   0  0  0  0  0  0  0  0  0  0  0  0
   -2.7851   -1.5069    0.0000 N   0  0  0  0  0  0  0  0  0  0  0  0
   -2.7851   -0.0069    0.0000 S   0  0  0  0  0  0  0  0  0  0  0  0
   -1.3079   -0.2673    0.0000 O   0  0  0  0  0  0  0  0  0  0  0  0
   -2.2721    1.4027    0.0000 O   0  0  0  0  0  0  0  0  0  0  0  0
   -4.0841    0.7431    0.0000 N   0  0  0  0  0  0  0  0  0  0  0  0
   -4.0841    2.2431    0.0000 C   0  0  0  0  0  0  0  0  0  0  0  0
  1  2  1  0  0  0  0 
  2  3  2  0  0  0  0 
  3  4  1  0  0  0  0 
  4  5  2  0  0  0  0 
  5  6  1  0  0  0  0 
  6  7  2  0  0  0  0 
  2  7  1  0  0  0  0 
  5  8  1  0  0  0  0 
  8  9  2  0  0  0  0 
  9 10  1  0  0  0  0 
  9 11  1  0  0  0  0 
 11 12  2  0  0  0  0 
 12 13  1  0  0  0  0 
 13 14  3  0  0  0  0 
 12 15  1  0  0  0  0 
  8 15  1  0  0  0  0 
 15 16  1  0  0  0  0 
 16 17  2  0  0  0  0 
 16 18  2  0  0  0  0 
 16 19  1  0  0  0  0 
 19 20  1  0  0  0  0 
M  END
> <Rank>
3

> <Priority_score>
4.21

> <Reaction_type>
N-dealkylation

> <Parent_ID>
1

> <Parent_InChI>
InChI=1S/C13H13ClN4O2S/c1-9-4-6-10(7-5-9)12-13(14)16-11(8-15)18(12)21(19,20)17(2)3/h4-7H,1-3H3

> <Parent_SMILES>
C([H])([H])([H])C1=C([H])C([H])=C(C([H])=C1[H])C2=C(Cl)N=C(C#N)N2S(=O)(=O)N(C([H])([H])[H])C([H])([H])[H]

$$$$

  CDK     1104240433

 22 23  0  0  0  0  0  0  0  0999 V2000
   -6.9209   -2.2299    0.0000 C   0  0  0  0  0  0  0  0  0  0  0  0
   -5.4932   -1.7699    0.0000 C   0  0  0  0  0  0  0  0  0  0  0  0
   -5.1780   -0.3026    0.0000 C   0  0  0  0  0  0  0  0  0  0  0  0
   -3.7502    0.1574    0.0000 C   0  0  0  0  0  0  0  0  0  0  0  0
   -2.6377   -0.8500    0.0000 C   0  0  0  0  0  0  0  0  0  0  0  0
   -2.9530   -2.3173    0.0000 C   0  0  0  0  0  0  0  0  0  0  0  0
   -4.3807   -2.7773    0.0000 C   0  0  0  0  0  0  0  0  0  0  0  0
   -1.2100   -0.3900    0.0000 C   0  0  0  0  0  0  0  0  0  0  0  0
   -0.7500    1.0300    0.0000 C   0  0  0  0  0  0  0  0  0  0  0  0
   -1.6322    2.2431    0.0000 Cl  0  0  0  0  0  0  0  0  0  0  0  0
    0.7500    1.0300    0.0000 N   0  0  0  0  0  0  0  0  0  0  0  0
    1.2100   -0.3900    0.0000 C   0  0  0  0  0  0  0  0  0  0  0  0
    2.6377   -0.8500    0.0000 C   0  0  0  0  0  0  0  0  0  0  0  0
    4.0655   -1.3099    0.0000 N   0  0  0  0  0  0  0  0  0  0  0  0
    0.0000   -1.2800    0.0000 N   0  0  0  0  0  0  0  0  0  0  0  0
   -0.0000   -2.7800    0.0000 S   0  0  0  0  0  0  0  0  0  0  0  0
   -1.4772   -2.5195    0.0000 O   0  0  0  0  0  0  0  0  0  0  0  0
   -0.5130   -4.1895    0.0000 O   0  0  0  0  0  0  0  0  0  0  0  0
    1.2990   -3.5300    0.0000 N   0  0  0  0  0  0  0  0  0  0  0  0
    1.2990   -5.0300    0.0000 C   0  0  0  0  0  0  0  0  0  0  0  0
    2.5981   -2.7800    0.0000 C   0  0  0  0  0  0  0  0  0  0  0  0
   -3.4345    1.6238    0.0000 O   0  0  0  0  0  0  0  0  0  0  0  0
  1  2  1  0  0  0  0 
  2  3  2  0  0  0  0 
  3  4  1  0  0  0  0 
  4  5  2  0  0  0  0 
  5  6  1  0  0  0  0 
  6  7  2  0  0  0  0 
  2  7  1  0  0  0  0 
  5  8  1  0  0  0  0 
  8  9  2  0  0  0  0 
  9 10  1  0  0  0  0 
  9 11  1  0  0  0  0 
 11 12  2  0  0  0  0 
 12 13  1  0  0  0  0 
 13 14  3  0  0  0  0 
 12 15  1  0  0  0  0 
  8 15  1  0  0  0  0 
 15 16  1  0  0  0  0 
 16 17  2  0  0  0  0 
 16 18  2  0  0  0  0 
 16 19  1  0  0  0  0 
 19 20  1  0  0  0  0 
 19 21  1  0  0  0  0 
  4 22  1  0  0  0  0 
M  END
> <Rank>
6

> <Priority_score>
1.01

> <Reaction_type>
aromatic hydroxylation

> <Parent_ID>
1

> <Parent_InChI>
InChI=1S/C13H13ClN4O2S/c1-9-4-6-10(7-5-9)12-13(14)16-11(8-15)18(12)21(19,20)17(2)3/h4-7H,1-3H3

> <Parent_SMILES>
C([H])([H])([H])C1=C([H])C([H])=C(C([H])=C1[H])C2=C(Cl)N=C(C#N)N2S(=O)(=O)N(C([H])([H])[H])C([H])([H])[H]

$$$$

  CDK     1104240433

 21 22  0  0  0  0  0  0  0  0999 V2000
    4.0655   -0.5959    0.0000 C   0  0  0  0  0  0  0  0  0  0  0  0
    2.6377   -1.0559    0.0000 C   0  0  0  0  0  0  0  0  0  0  0  0
    1.5753   -0.0704    0.0000 C   0  0  0  0  0  0  0  0  0  0  0  0
    0.1497   -0.4683    0.0000 C   0  0  0  0  0  0  0  0  0  0  0  0
   -0.1473   -1.9369    0.0000 C   0  0  0  0  0  0  0  0  0  0  0  0
    0.9151   -2.9224    0.0000 C   0  0  0  0  0  0  0  0  0  0  0  0
    2.3406   -2.5245    0.0000 C   0  0  0  0  0  0  0  0  0  0  0  0
   -1.5751   -2.3969    0.0000 C   0  0  0  0  0  0  0  0  0  0  0  0
   -2.0351   -3.8169    0.0000 C   0  0  0  0  0  0  0  0  0  0  0  0
   -1.1529   -5.0300    0.0000 Cl  0  0  0  0  0  0  0  0  0  0  0  0
   -3.5351   -3.8169    0.0000 N   0  0  0  0  0  0  0  0  0  0  0  0
   -3.9951   -2.3969    0.0000 C   0  0  0  0  0  0  0  0  0  0  0  0
   -5.4228   -1.9369    0.0000 C   0  0  0  0  0  0  0  0  0  0  0  0
   -6.8506   -1.4769    0.0000 N   0  0  0  0  0  0  0  0  0  0  0  0
   -2.7851   -1.5069    0.0000 N   0  0  0  0  0  0  0  0  0  0  0  0
   -2.7851   -0.0069    0.0000 S   0  0  0  0  0  0  0  0  0  0  0  0
   -1.3079   -0.2673    0.0000 O   0  0  0  0  0  0  0  0  0  0  0  0
   -2.2721    1.4027    0.0000 O   0  0  0  0  0  0  0  0  0  0  0  0
   -4.0841    0.7431    0.0000 N   0  0  0  0  0  0  0  0  0  0  0  0
   -5.3832   -0.0069    0.0000 C   0  0  0  0  0  0  0  0  0  0  0  0
   -4.0841    2.2431    0.0000 C   0  0  0  0  0  0  0  0  0  0  0  0
  1  2  1  0  0  0  0 
  2  3  2  0  0  0  0 
  3  4  1  0  0  0  0 
  4  5  2  0  0  0  0 
  5  6  1  0  0  0  0 
  6  7  2  0  0  0  0 
  2  7  1  0  0  0  0 
  5  8  1  0  0  0  0 
  8  9  2  0  0  0  0 
  9 10  1  0  0  0  0 
  9 11  1  0  0  0  0 
 11 12  2  0  0  0  0 
 12 13  1  0  0  0  0 
 13 14  3  0  0  0  0 
 12 15  1  0  0  0  0 
  8 15  1  0  0  0  0 
 15 16  1  0  0  0  0 
 16 17  2  0  0  0  0 
 16 18  2  0  0  0  0 
 16 19  1  0  0  0  0 
 19 20  2  0  0  0  0 
 19 21  1  0  0  0  0 
M  CHG  1  19   1
M  END
> <Rank>
7

> <Priority_score>
0.842

> <Reaction_type>
dehydration of N-C bond

> <Parent_ID>
1

> <Parent_InChI>
InChI=1S/C13H13ClN4O2S/c1-9-4-6-10(7-5-9)12-13(14)16-11(8-15)18(12)21(19,20)17(2)3/h4-7H,1-3H3

> <Parent_SMILES>
C([H])([H])([H])C1=C([H])C([H])=C(C([H])=C1[H])C2=C(Cl)N=C(C#N)N2S(=O)(=O)N(C([H])([H])[H])C([H])([H])[H]

$$$$
