
  CDK     1104240515

 17 17  0  0  0  0  0  0  0  0999 V2000
    2.3089   -1.3302    0.0000 C   0  0  0  0  0  0  0  0  0  0  0  0
    1.0100   -0.5800    0.0000 C   0  0  0  0  0  0  0  0  0  0  0  0
   -0.2900   -1.3300    0.0000 C   0  0  0  0  0  0  0  0  0  0  0  0
   -1.5900   -0.5800    0.0000 C   0  0  0  0  0  0  0  0  0  0  0  0
   -1.5900    0.9200    0.0000 C   0  0  0  0  0  0  0  0  0  0  0  0
   -0.2900    1.6700    0.0000 C   0  0  0  0  0  0  0  0  0  0  0  0
    1.0100    0.9200    0.0000 C   0  0  0  0  0  0  0  0  0  0  0  0
    2.3089    1.6702    0.0000 S   0  0  0  0  0  0  0  0  0  0  0  0
    3.6081    0.9204    0.0000 O   0  0  0  0  0  0  0  0  0  0  0  0
    2.3087    3.1702    0.0000 C   0  0  0  0  0  0  0  0  0  0  0  0
   -2.8889   -1.3302    0.0000 O   0  0  0  0  0  0  0  0  0  0  0  0
   -4.1881   -0.5804    0.0000 P   0  0  0  0  0  0  0  0  0  0  0  0
   -3.2241    0.5688    0.0000 S   0  0  0  0  0  0  0  0  0  0  0  0
   -5.4870   -1.3306    0.0000 O   0  0  0  0  0  0  0  0  0  0  0  0
   -6.7862   -0.5808    0.0000 C   0  0  0  0  0  0  0  0  0  0  0  0
   -5.1524    0.5685    0.0000 O   0  0  0  0  0  0  0  0  0  0  0  0
   -6.6296    0.3078    0.0000 C   0  0  0  0  0  0  0  0  0  0  0  0
  1  2  1  0  0  0  0 
  2  3  2  0  0  0  0 
  3  4  1  0  0  0  0 
  4  5  2  0  0  0  0 
  5  6  1  0  0  0  0 
  6  7  2  0  0  0  0 
  2  7  1  0  0  0  0 
  7  8  1  0  0  0  0 
  8  9  2  0  0  0  0 
  8 10  1  0  0  0  0 
  4 11  1  0  0  0  0 
 11 12  1  0  0  0  0 
 12 13  2  0  0  0  0 
 12 14  1  0  0  0  0 
 14 15  1  0  0  0  0 
 12 16  1  0  0  0  0 
 16 17  1  0  0  0  0 
M  END
> <Rank>
1

> <Priority_score>
4.44

> <Reaction_type>
S-oxidation

> <Parent_ID>
1

> <Parent_InChI>
InChI=1S/C10H15O3PS2/c1-8-7-9(5-6-10(8)16-4)13-14(15,11-2)12-3/h5-7H,1-4H3

> <Parent_SMILES>
C([H])([H])([H])C1=C([H])C(=C([H])C([H])=C1SC([H])([H])[H])OP(=S)(OC([H])([H])[H])OC([H])([H])[H]

$$$$

  CDK     1104240515

 16 16  0  0  0  0  0  0  0  0999 V2000
   -6.7862    3.1698    0.0000 C   0  0  0  0  0  0  0  0  0  0  0  0
   -5.4872    2.4196    0.0000 C   0  0  0  0  0  0  0  0  0  0  0  0
   -4.1872    3.1696    0.0000 C   0  0  0  0  0  0  0  0  0  0  0  0
   -2.8872    2.4196    0.0000 C   0  0  0  0  0  0  0  0  0  0  0  0
   -2.8872    0.9196    0.0000 C   0  0  0  0  0  0  0  0  0  0  0  0
   -4.1872    0.1696    0.0000 C   0  0  0  0  0  0  0  0  0  0  0  0
   -5.4872    0.9196    0.0000 C   0  0  0  0  0  0  0  0  0  0  0  0
   -6.7862    0.1694    0.0000 S   0  0  0  0  0  0  0  0  0  0  0  0
   -6.7859   -1.3306    0.0000 C   0  0  0  0  0  0  0  0  0  0  0  0
   -1.5883    3.1698    0.0000 O   0  0  0  0  0  0  0  0  0  0  0  0
   -0.2892    2.4200    0.0000 P   0  0  0  0  0  0  0  0  0  0  0  0
   -1.2532    1.2708    0.0000 O   0  0  0  0  0  0  0  0  0  0  0  0
    1.0098    3.1702    0.0000 O   0  0  0  0  0  0  0  0  0  0  0  0
    2.3089    2.4204    0.0000 C   0  0  0  0  0  0  0  0  0  0  0  0
    0.6752    1.2711    0.0000 O   0  0  0  0  0  0  0  0  0  0  0  0
    2.1524    1.5318    0.0000 C   0  0  0  0  0  0  0  0  0  0  0  0
  1  2  1  0  0  0  0 
  2  3  2  0  0  0  0 
  3  4  1  0  0  0  0 
  4  5  2  0  0  0  0 
  5  6  1  0  0  0  0 
  6  7  2  0  0  0  0 
  2  7  1  0  0  0  0 
  7  8  1  0  0  0  0 
  8  9  1  0  0  0  0 
  4 10  1  0  0  0  0 
 10 11  1  0  0  0  0 
 11 12  2  0  0  0  0 
 11 13  1  0  0  0  0 
 13 14  1  0  0  0  0 
 11 15  1  0  0  0  0 
 15 16  1  0  0  0  0 
M  END
> <Rank>
2

> <Priority_score>
4.4

> <Reaction_type>
desulfuration of phosphor

> <Parent_ID>
1

> <Parent_InChI>
InChI=1S/C10H15O3PS2/c1-8-7-9(5-6-10(8)16-4)13-14(15,11-2)12-3/h5-7H,1-4H3

> <Parent_SMILES>
C([H])([H])([H])C1=C([H])C(=C([H])C([H])=C1SC([H])([H])[H])OP(=S)(OC([H])([H])[H])OC([H])([H])[H]

$$$$

  CDK     1104240515

 17 17  0  0  0  0  0  0  0  0999 V2000
   -6.7862    3.1698    0.0000 C   0  0  0  0  0  0  0  0  0  0  0  0
   -5.4872    2.4196    0.0000 C   0  0  0  0  0  0  0  0  0  0  0  0
   -4.1872    3.1696    0.0000 C   0  0  0  0  0  0  0  0  0  0  0  0
   -2.8872    2.4196    0.0000 C   0  0  0  0  0  0  0  0  0  0  0  0
   -2.8872    0.9196    0.0000 C   0  0  0  0  0  0  0  0  0  0  0  0
   -4.1872    0.1696    0.0000 C   0  0  0  0  0  0  0  0  0  0  0  0
   -5.4872    0.9196    0.0000 C   0  0  0  0  0  0  0  0  0  0  0  0
   -6.7862    0.1694    0.0000 S   0  0  0  0  0  0  0  0  0  0  0  0
   -6.7859   -1.3306    0.0000 C   0  0  0  0  0  0  0  0  0  0  0  0
   -1.5883    3.1698    0.0000 O   0  0  0  0  0  0  0  0  0  0  0  0
   -0.2892    2.4200    0.0000 P   0  0  0  0  0  0  0  0  0  0  0  0
   -1.2532    1.2708    0.0000 S   0  0  0  0  0  0  0  0  0  0  0  0
   -0.7399   -0.1387    0.0000 O   0  0  0  0  0  0  0  0  0  0  0  0
    1.0098    3.1702    0.0000 O   0  0  0  0  0  0  0  0  0  0  0  0
    2.3089    2.4204    0.0000 C   0  0  0  0  0  0  0  0  0  0  0  0
    0.6752    1.2711    0.0000 O   0  0  0  0  0  0  0  0  0  0  0  0
    2.1524    1.5318    0.0000 C   0  0  0  0  0  0  0  0  0  0  0  0
  1  2  1  0  0  0  0 
  2  3  2  0  0  0  0 
  3  4  1  0  0  0  0 
  4  5  2  0  0  0  0 
  5  6  1  0  0  0  0 
  6  7  2  0  0  0  0 
  2  7  1  0  0  0  0 
  7  8  1  0  0  0  0 
  8  9  1  0  0  0  0 
  4 10  1  0  0  0  0 
 10 11  1  0  0  0  0 
 11 12  2  0  0  0  0 
 12 13  2  0  0  0  0 
 11 14  1  0  0  0  0 
 14 15  1  0  0  0  0 
 11 16  1  0  0  0  0 
 16 17  1  0  0  0  0 
M  END
> <Rank>
3

> <Priority_score>
3.25

> <Reaction_type>
S-oxidation

> <Parent_ID>
1

> <Parent_InChI>
InChI=1S/C10H15O3PS2/c1-8-7-9(5-6-10(8)16-4)13-14(15,11-2)12-3/h5-7H,1-4H3

> <Parent_SMILES>
C([H])([H])([H])C1=C([H])C(=C([H])C([H])=C1SC([H])([H])[H])OP(=S)(OC([H])([H])[H])OC([H])([H])[H]

$$$$

  CDK     1104240515

 17 17  0  0  0  0  0  0  0  0999 V2000
   -8.0851    3.1694    0.0000 C   0  0  0  0  0  0  0  0  0  0  0  0
   -6.7862    2.4192    0.0000 C   0  0  0  0  0  0  0  0  0  0  0  0
   -5.4862    3.1692    0.0000 C   0  0  0  0  0  0  0  0  0  0  0  0
   -4.1862    2.4192    0.0000 C   0  0  0  0  0  0  0  0  0  0  0  0
   -4.1862    0.9192    0.0000 C   0  0  0  0  0  0  0  0  0  0  0  0
   -5.4862    0.1692    0.0000 C   0  0  0  0  0  0  0  0  0  0  0  0
   -6.7862    0.9192    0.0000 C   0  0  0  0  0  0  0  0  0  0  0  0
   -8.0851    0.1690    0.0000 S   0  0  0  0  0  0  0  0  0  0  0  0
   -8.0848   -1.3310    0.0000 C   0  0  0  0  0  0  0  0  0  0  0  0
   -2.8872    3.1694    0.0000 O   0  0  0  0  0  0  0  0  0  0  0  0
   -1.5881    2.4196    0.0000 P   0  0  0  0  0  0  0  0  0  0  0  0
   -2.5521    1.2704    0.0000 S   0  0  0  0  0  0  0  0  0  0  0  0
   -0.6237    1.2707    0.0000 O   0  0  0  0  0  0  0  0  0  0  0  0
    0.8535    1.5314    0.0000 C   0  0  0  0  0  0  0  0  0  0  0  0
   -0.2892    3.1698    0.0000 O   0  0  0  0  0  0  0  0  0  0  0  0
    1.0100    2.4200    0.0000 C   0  0  0  0  0  0  0  0  0  0  0  0
    2.3089    3.1702    0.0000 O   0  0  0  0  0  0  0  0  0  0  0  0
  1  2  1  0  0  0  0 
  2  3  2  0  0  0  0 
  3  4  1  0  0  0  0 
  4  5  2  0  0  0  0 
  5  6  1  0  0  0  0 
  6  7  2  0  0  0  0 
  2  7  1  0  0  0  0 
  7  8  1  0  0  0  0 
  8  9  1  0  0  0  0 
  4 10  1  0  0  0  0 
 10 11  1  0  0  0  0 
 11 12  2  0  0  0  0 
 11 13  1  0  0  0  0 
 13 14  1  0  0  0  0 
 11 15  1  0  0  0  0 
 15 16  1  0  0  0  0 
 16 17  1  0  0  0  0 
M  END
> <Rank>
4

> <Priority_score>
2.06

> <Reaction_type>
aliphatic hydroxylation

> <Parent_ID>
1

> <Parent_InChI>
InChI=1S/C10H15O3PS2/c1-8-7-9(5-6-10(8)16-4)13-14(15,11-2)12-3/h5-7H,1-4H3

> <Parent_SMILES>
C([H])([H])([H])C1=C([H])C(=C([H])C([H])=C1SC([H])([H])[H])OP(=S)(OC([H])([H])[H])OC([H])([H])[H]

$$$$

  CDK     1104240515

 17 17  0  0  0  0  0  0  0  0999 V2000
   -5.4875    3.9200    0.0000 C   0  0  0  0  0  0  0  0  0  0  0  0
   -4.1886    3.1698    0.0000 C   0  0  0  0  0  0  0  0  0  0  0  0
   -2.8886    3.9198    0.0000 C   0  0  0  0  0  0  0  0  0  0  0  0
   -1.5886    3.1698    0.0000 C   0  0  0  0  0  0  0  0  0  0  0  0
   -1.5886    1.6698    0.0000 C   0  0  0  0  0  0  0  0  0  0  0  0
   -2.8886    0.9198    0.0000 C   0  0  0  0  0  0  0  0  0  0  0  0
   -4.1886    1.6698    0.0000 C   0  0  0  0  0  0  0  0  0  0  0  0
   -5.4875    0.9196    0.0000 S   0  0  0  0  0  0  0  0  0  0  0  0
   -5.4872   -0.5804    0.0000 C   0  0  0  0  0  0  0  0  0  0  0  0
   -6.7862   -1.3306    0.0000 O   0  0  0  0  0  0  0  0  0  0  0  0
   -0.2896    3.9200    0.0000 O   0  0  0  0  0  0  0  0  0  0  0  0
    1.0095    3.1702    0.0000 P   0  0  0  0  0  0  0  0  0  0  0  0
    0.0455    2.0210    0.0000 S   0  0  0  0  0  0  0  0  0  0  0  0
    2.3084    3.9204    0.0000 O   0  0  0  0  0  0  0  0  0  0  0  0
    3.6076    3.1706    0.0000 C   0  0  0  0  0  0  0  0  0  0  0  0
    1.9739    2.0213    0.0000 O   0  0  0  0  0  0  0  0  0  0  0  0
    3.4511    2.2820    0.0000 C   0  0  0  0  0  0  0  0  0  0  0  0
  1  2  1  0  0  0  0 
  2  3  2  0  0  0  0 
  3  4  1  0  0  0  0 
  4  5  2  0  0  0  0 
  5  6  1  0  0  0  0 
  6  7  2  0  0  0  0 
  2  7  1  0  0  0  0 
  7  8  1  0  0  0  0 
  8  9  1  0  0  0  0 
  9 10  1  0  0  0  0 
  4 11  1  0  0  0  0 
 11 12  1  0  0  0  0 
 12 13  2  0  0  0  0 
 12 14  1  0  0  0  0 
 14 15  1  0  0  0  0 
 12 16  1  0  0  0  0 
 16 17  1  0  0  0  0 
M  END
> <Rank>
5

> <Priority_score>
1.46

> <Reaction_type>
aliphatic hydroxylation

> <Parent_ID>
1

> <Parent_InChI>
InChI=1S/C10H15O3PS2/c1-8-7-9(5-6-10(8)16-4)13-14(15,11-2)12-3/h5-7H,1-4H3

> <Parent_SMILES>
C([H])([H])([H])C1=C([H])C(=C([H])C([H])=C1SC([H])([H])[H])OP(=S)(OC([H])([H])[H])OC([H])([H])[H]

$$$$

  CDK     1104240515

 17 17  0  0  0  0  0  0  0  0999 V2000
   -6.7862   -0.5808    0.0000 C   0  0  0  0  0  0  0  0  0  0  0  0
   -5.4870   -1.3306    0.0000 O   0  0  0  0  0  0  0  0  0  0  0  0
   -4.1881   -0.5804    0.0000 P   0  0  0  0  0  0  0  0  0  0  0  0
   -3.2241    0.5688    0.0000 S   0  0  0  0  0  0  0  0  0  0  0  0
   -5.1524    0.5685    0.0000 O   0  0  0  0  0  0  0  0  0  0  0  0
   -6.6296    0.3078    0.0000 C   0  0  0  0  0  0  0  0  0  0  0  0
   -2.8889   -1.3302    0.0000 O   0  0  0  0  0  0  0  0  0  0  0  0
   -1.5900   -0.5800    0.0000 C   0  0  0  0  0  0  0  0  0  0  0  0
   -1.5900    0.9200    0.0000 C   0  0  0  0  0  0  0  0  0  0  0  0
   -0.2900    1.6700    0.0000 C   0  0  0  0  0  0  0  0  0  0  0  0
    1.0100    0.9200    0.0000 C   0  0  0  0  0  0  0  0  0  0  0  0
    1.0100   -0.5800    0.0000 C   0  0  0  0  0  0  0  0  0  0  0  0
   -0.2900   -1.3300    0.0000 C   0  0  0  0  0  0  0  0  0  0  0  0
    2.3089   -1.3302    0.0000 C   0  0  0  0  0  0  0  0  0  0  0  0
    3.6081   -0.5804    0.0000 O   0  0  0  0  0  0  0  0  0  0  0  0
    2.3089    1.6702    0.0000 S   0  0  0  0  0  0  0  0  0  0  0  0
    3.6081    0.9204    0.0000 C   0  0  0  0  0  0  0  0  0  0  0  0
  1  2  1  0  0  0  0 
  2  3  1  0  0  0  0 
  3  4  2  0  0  0  0 
  3  5  1  0  0  0  0 
  5  6  1  0  0  0  0 
  3  7  1  0  0  0  0 
  7  8  1  0  0  0  0 
  8  9  2  0  0  0  0 
  9 10  1  0  0  0  0 
 10 11  2  0  0  0  0 
 11 12  1  0  0  0  0 
 12 13  2  0  0  0  0 
  8 13  1  0  0  0  0 
 12 14  1  0  0  0  0 
 14 15  1  0  0  0  0 
 11 16  1  0  0  0  0 
 16 17  1  0  0  0  0 
M  END
> <Rank>
6

> <Priority_score>
1.02

> <Reaction_type>
aliphatic hydroxylation

> <Parent_ID>
1

> <Parent_InChI>
InChI=1S/C10H15O3PS2/c1-8-7-9(5-6-10(8)16-4)13-14(15,11-2)12-3/h5-7H,1-4H3

> <Parent_SMILES>
C([H])([H])([H])C1=C([H])C(=C([H])C([H])=C1SC([H])([H])[H])OP(=S)(OC([H])([H])[H])OC([H])([H])[H]

$$$$

  CDK     1104240515

  7  6  0  0  0  0  0  0  0  0999 V2000
    0.0000    0.0000    0.0000 C   0  0  0  0  0  0  0  0  0  0  0  0
    1.2990   -0.7500    0.0000 O   0  0  0  0  0  0  0  0  0  0  0  0
    2.5981   -0.0000    0.0000 P   0  0  0  0  0  0  0  0  0  0  0  0
    3.5623    1.1491    0.0000 S   0  0  0  0  0  0  0  0  0  0  0  0
    1.6339    1.1491    0.0000 O   0  0  0  0  0  0  0  0  0  0  0  0
    3.8971   -0.7500    0.0000 O   0  0  0  0  0  0  0  0  0  0  0  0
    5.1962   -0.0000    0.0000 C   0  0  0  0  0  0  0  0  0  0  0  0
  1  2  1  0  0  0  0 
  2  3  1  0  0  0  0 
  3  4  2  0  0  0  0 
  3  5  1  0  0  0  0 
  3  6  1  0  0  0  0 
  6  7  1  0  0  0  0 
M  END
> <Rank>
7

> <Priority_score>
0.88

> <Reaction_type>
monothiophosphate ester cleavage

> <Parent_ID>
1

> <Parent_InChI>
InChI=1S/C10H15O3PS2/c1-8-7-9(5-6-10(8)16-4)13-14(15,11-2)12-3/h5-7H,1-4H3

> <Parent_SMILES>
C([H])([H])([H])C1=C([H])C(=C([H])C([H])=C1SC([H])([H])[H])OP(=S)(OC([H])([H])[H])OC([H])([H])[H]

$$$$

  CDK     1104240515

  7  6  0  0  0  0  0  0  0  0999 V2000
    0.0000    0.0000    0.0000 C   0  0  0  0  0  0  0  0  0  0  0  0
    1.2990   -0.7500    0.0000 O   0  0  0  0  0  0  0  0  0  0  0  0
    2.5981   -0.0000    0.0000 P   0  0  0  0  0  0  0  0  0  0  0  0
    3.5623    1.1491    0.0000 O   0  0  0  0  0  0  0  0  0  0  0  0
    1.6339    1.1491    0.0000 O   0  0  0  0  0  0  0  0  0  0  0  0
    3.8971   -0.7500    0.0000 O   0  0  0  0  0  0  0  0  0  0  0  0
    5.1962   -0.0000    0.0000 C   0  0  0  0  0  0  0  0  0  0  0  0
  1  2  1  0  0  0  0 
  2  3  1  0  0  0  0 
  3  4  2  0  0  0  0 
  3  5  1  0  0  0  0 
  3  6  1  0  0  0  0 
  6  7  1  0  0  0  0 
M  END
> <Rank>
7

> <Priority_score>
0.88

> <Reaction_type>
monothiophosphate ester cleavage

> <Parent_ID>
1

> <Parent_InChI>
InChI=1S/C10H15O3PS2/c1-8-7-9(5-6-10(8)16-4)13-14(15,11-2)12-3/h5-7H,1-4H3

> <Parent_SMILES>
C([H])([H])([H])C1=C([H])C(=C([H])C([H])=C1SC([H])([H])[H])OP(=S)(OC([H])([H])[H])OC([H])([H])[H]

$$$$

  CDK     1104240515

 10 10  0  0  0  0  0  0  0  0999 V2000
    0.3593    4.2958    0.0000 C   0  0  0  0  0  0  0  0  0  0  0  0
    0.3590    2.7958    0.0000 C   0  0  0  0  0  0  0  0  0  0  0  0
    1.6586    2.0450    0.0000 C   0  0  0  0  0  0  0  0  0  0  0  0
    1.6590    0.5442    0.0000 C   0  0  0  0  0  0  0  0  0  0  0  0
    0.3600   -0.2058    0.0000 C   0  0  0  0  0  0  0  0  0  0  0  0
   -0.9395    0.5450    0.0000 C   0  0  0  0  0  0  0  0  0  0  0  0
   -0.9400    2.0458    0.0000 C   0  0  0  0  0  0  0  0  0  0  0  0
   -2.2392    2.7956    0.0000 S   0  0  0  0  0  0  0  0  0  0  0  0
   -3.5381    2.0454    0.0000 C   0  0  0  0  0  0  0  0  0  0  0  0
    2.9582   -0.2056    0.0000 O   0  0  0  0  0  0  0  0  0  0  0  0
  1  2  1  0  0  0  0 
  2  3  2  0  0  0  0 
  3  4  1  0  0  0  0 
  4  5  2  0  0  0  0 
  5  6  1  0  0  0  0 
  6  7  2  0  0  0  0 
  2  7  1  0  0  0  0 
  7  8  1  0  0  0  0 
  8  9  1  0  0  0  0 
  4 10  1  0  0  0  0 
M  END
> <Rank>
7

> <Priority_score>
0.88

> <Reaction_type>
monothiophosphate ester cleavage

> <Parent_ID>
1

> <Parent_InChI>
InChI=1S/C10H15O3PS2/c1-8-7-9(5-6-10(8)16-4)13-14(15,11-2)12-3/h5-7H,1-4H3

> <Parent_SMILES>
C([H])([H])([H])C1=C([H])C(=C([H])C([H])=C1SC([H])([H])[H])OP(=S)(OC([H])([H])[H])OC([H])([H])[H]

$$$$

  CDK     1104240515

 15 15  0  0  0  0  0  0  0  0999 V2000
   -6.7862    3.1698    0.0000 C   0  0  0  0  0  0  0  0  0  0  0  0
   -5.4872    2.4196    0.0000 C   0  0  0  0  0  0  0  0  0  0  0  0
   -4.1872    3.1696    0.0000 C   0  0  0  0  0  0  0  0  0  0  0  0
   -2.8872    2.4196    0.0000 C   0  0  0  0  0  0  0  0  0  0  0  0
   -2.8872    0.9196    0.0000 C   0  0  0  0  0  0  0  0  0  0  0  0
   -4.1872    0.1696    0.0000 C   0  0  0  0  0  0  0  0  0  0  0  0
   -5.4872    0.9196    0.0000 C   0  0  0  0  0  0  0  0  0  0  0  0
   -6.7862    0.1694    0.0000 S   0  0  0  0  0  0  0  0  0  0  0  0
   -6.7859   -1.3306    0.0000 C   0  0  0  0  0  0  0  0  0  0  0  0
   -1.5883    3.1698    0.0000 O   0  0  0  0  0  0  0  0  0  0  0  0
   -0.2892    2.4200    0.0000 P   0  0  0  0  0  0  0  0  0  0  0  0
   -1.2532    1.2708    0.0000 S   0  0  0  0  0  0  0  0  0  0  0  0
    0.6752    1.2711    0.0000 O   0  0  0  0  0  0  0  0  0  0  0  0
    1.0098    3.1702    0.0000 O   0  0  0  0  0  0  0  0  0  0  0  0
    2.3089    2.4204    0.0000 C   0  0  0  0  0  0  0  0  0  0  0  0
  1  2  1  0  0  0  0 
  2  3  2  0  0  0  0 
  3  4  1  0  0  0  0 
  4  5  2  0  0  0  0 
  5  6  1  0  0  0  0 
  6  7  2  0  0  0  0 
  2  7  1  0  0  0  0 
  7  8  1  0  0  0  0 
  8  9  1  0  0  0  0 
  4 10  1  0  0  0  0 
 10 11  1  0  0  0  0 
 11 12  2  0  0  0  0 
 11 13  1  0  0  0  0 
 11 14  1  0  0  0  0 
 14 15  1  0  0  0  0 
M  END
> <Rank>
7

> <Priority_score>
0.88

> <Reaction_type>
monothiophosphate ester cleavage

> <Parent_ID>
1

> <Parent_InChI>
InChI=1S/C10H15O3PS2/c1-8-7-9(5-6-10(8)16-4)13-14(15,11-2)12-3/h5-7H,1-4H3

> <Parent_SMILES>
C([H])([H])([H])C1=C([H])C(=C([H])C([H])=C1SC([H])([H])[H])OP(=S)(OC([H])([H])[H])OC([H])([H])[H]

$$$$

  CDK     1104240515

 15 15  0  0  0  0  0  0  0  0999 V2000
   -6.7862    3.1698    0.0000 C   0  0  0  0  0  0  0  0  0  0  0  0
   -5.4872    2.4196    0.0000 C   0  0  0  0  0  0  0  0  0  0  0  0
   -4.1872    3.1696    0.0000 C   0  0  0  0  0  0  0  0  0  0  0  0
   -2.8872    2.4196    0.0000 C   0  0  0  0  0  0  0  0  0  0  0  0
   -2.8872    0.9196    0.0000 C   0  0  0  0  0  0  0  0  0  0  0  0
   -4.1872    0.1696    0.0000 C   0  0  0  0  0  0  0  0  0  0  0  0
   -5.4872    0.9196    0.0000 C   0  0  0  0  0  0  0  0  0  0  0  0
   -6.7862    0.1694    0.0000 S   0  0  0  0  0  0  0  0  0  0  0  0
   -6.7859   -1.3306    0.0000 C   0  0  0  0  0  0  0  0  0  0  0  0
   -1.5883    3.1698    0.0000 O   0  0  0  0  0  0  0  0  0  0  0  0
   -0.2892    2.4200    0.0000 P   0  0  0  0  0  0  0  0  0  0  0  0
   -1.2532    1.2708    0.0000 O   0  0  0  0  0  0  0  0  0  0  0  0
    0.6752    1.2711    0.0000 O   0  0  0  0  0  0  0  0  0  0  0  0
    1.0098    3.1702    0.0000 O   0  0  0  0  0  0  0  0  0  0  0  0
    2.3089    2.4204    0.0000 C   0  0  0  0  0  0  0  0  0  0  0  0
  1  2  1  0  0  0  0 
  2  3  2  0  0  0  0 
  3  4  1  0  0  0  0 
  4  5  2  0  0  0  0 
  5  6  1  0  0  0  0 
  6  7  2  0  0  0  0 
  2  7  1  0  0  0  0 
  7  8  1  0  0  0  0 
  8  9  1  0  0  0  0 
  4 10  1  0  0  0  0 
 10 11  1  0  0  0  0 
 11 12  2  0  0  0  0 
 11 13  1  0  0  0  0 
 11 14  1  0  0  0  0 
 14 15  1  0  0  0  0 
M  END
> <Rank>
7

> <Priority_score>
0.88

> <Reaction_type>
monothiophosphate ester cleavage

> <Parent_ID>
1

> <Parent_InChI>
InChI=1S/C10H15O3PS2/c1-8-7-9(5-6-10(8)16-4)13-14(15,11-2)12-3/h5-7H,1-4H3

> <Parent_SMILES>
C([H])([H])([H])C1=C([H])C(=C([H])C([H])=C1SC([H])([H])[H])OP(=S)(OC([H])([H])[H])OC([H])([H])[H]

$$$$
