
  CDK     1104240539

  4  4  0  0  0  0  0  0  0  0999 V2000
   -1.1111    1.1943    0.0000 C   0  0  0  0  0  0  0  0  0  0  0  0
   -0.3611   -0.1047    0.0000 C   0  0  0  0  0  0  0  0  0  0  0  0
    0.9380   -0.8545    0.0000 Cl  0  0  0  0  0  0  0  0  0  0  0  0
   -1.8620   -0.1052    0.0000 O   0  0  0  0  0  0  0  0  0  0  0  0
  1  2  1  0  0  0  0 
  2  3  1  0  0  0  0 
  2  4  1  0  0  0  0 
  1  4  1  0  0  0  0 
M  END
> <Rank>
1

> <Priority_score>
4.2299999999999995

> <Reaction_type>
epoxidation

> <Parent_ID>
1

> <Parent_InChI>
InChI=1S/C2H3Cl/c1-2-3/h2H,1H2

> <Parent_SMILES>
C([H])([H])=C([H])Cl

$$$$

  CDK     1104240539

  3  2  0  0  0  0  0  0  0  0999 V2000
   -0.2010   -0.7500    0.0000 C   0  0  0  0  0  0  0  0  0  0  0  0
    1.2990   -0.7500    0.0000 C   0  0  0  0  0  0  0  0  0  0  0  0
    2.7990   -0.7500    0.0000 O   0  0  0  0  0  0  0  0  0  0  0  0
  1  2  2  0  0  0  0 
  2  3  2  0  0  0  0 
M  END
> <Rank>
2

> <Priority_score>
3.85

> <Reaction_type>
oxidative dehalogenation alkyl

> <Parent_ID>
1

> <Parent_InChI>
InChI=1S/C2H3Cl/c1-2-3/h2H,1H2

> <Parent_SMILES>
C([H])([H])=C([H])Cl

$$$$
