
  CDK     1104240404

 22 24  0  0  0  0  0  0  0  0999 V2000
    3.1146   -1.0039    0.0000 C   0  0  0  0  0  0  0  0  0  0  0  0
    2.0000   -0.0000    0.0000 C   0  0  2  0  0  0  0  0  0  0  0  0
    3.1146    1.0039    0.0000 C   0  0  0  0  0  0  0  0  0  0  0  0
    4.5412    0.5406    0.0000 N   0  0  0  0  0  0  0  0  0  0  0  0
    5.7457    1.4222    0.0000 C   0  0  0  0  0  0  0  0  0  0  0  0
    6.9615    0.5437    0.0000 C   0  0  0  0  0  0  0  0  0  0  0  0
    6.5028   -0.8767    0.0000 N   0  0  0  0  0  0  0  0  0  0  0  0
    5.0008   -0.8895    0.0000 N   0  0  0  0  0  0  0  0  0  0  0  0
    7.3907   -2.0857    0.0000 C   0  0  0  0  0  0  0  0  0  0  0  0
    8.8817   -1.9212    0.0000 O   0  0  0  0  0  0  0  0  0  0  0  0
    1.1200   -1.2100    0.0000 C   0  0  2  0  0  0  0  0  0  0  0  0
    1.5853   -2.6360    0.0000 C   0  0  0  0  0  0  0  0  0  0  0  0
    0.5830   -3.7520    0.0000 O   0  0  0  0  0  0  0  0  0  0  0  0
    3.0529   -2.9461    0.0000 O   0  0  0  0  0  0  0  0  0  0  0  0
   -0.3100   -0.7500    0.0000 N   0  0  0  0  0  0  0  0  0  0  0  0
   -1.8100   -0.7500    0.0000 C   0  0  0  0  0  0  0  0  0  0  0  0
   -2.8707   -1.8107    0.0000 O   0  0  0  0  0  0  0  0  0  0  0  0
   -1.8100    0.7500    0.0000 C   0  0  0  0  0  0  0  0  0  0  0  0
   -0.3100    0.7500    0.0000 C   0  0  1  0  0  0  0  0  0  0  0  0
    1.1200    1.2100    0.0000 S   0  0  0  0  0  0  0  0  0  0  0  0
    2.4195    1.9591    0.0000 O   0  0  0  0  0  0  0  0  0  0  0  0
    0.5124    2.5814    0.0000 O   0  0  0  0  0  0  0  0  0  0  0  0
  2  1  1  6  0  0  0 
  2  3  1  1  0  0  0 
  3  4  1  0  0  0  0 
  4  5  1  0  0  0  0 
  5  6  2  0  0  0  0 
  6  7  1  0  0  0  0 
  7  8  2  0  0  0  0 
  4  8  1  0  0  0  0 
  7  9  1  0  0  0  0 
  9 10  1  0  0  0  0 
  2 11  1  0  0  0  0 
 11 12  1  6  0  0  0 
 12 13  2  0  0  0  0 
 12 14  1  0  0  0  0 
 11 15  1  0  0  0  0 
 15 16  1  0  0  0  0 
 16 17  2  0  0  0  0 
 16 18  1  0  0  0  0 
 18 19  1  0  0  0  0 
 19 15  1  1  0  0  0 
 19 20  1  0  0  0  0 
  2 20  1  0  0  0  0 
 20 21  2  0  0  0  0 
 20 22  2  0  0  0  0 
M  CHG  1   7   1
M  CHG  1  14  -1
M  END
> <Rank>
1

> <Priority_score>
2.5700000000000003

> <Reaction_type>
aliphatic hydroxylation

> <Parent_ID>
1

> <Parent_InChI>
InChI=1S/C11H14N4O5S/c1-11(6-14-4-3-13(2)12-14)9(10(17)18)15-7(16)5-8(15)21(11,19)20/h3-4,8-9H,5-6H2,1-2H3/t8-,9+,11+/m1/s1

> <Parent_SMILES>
C([H])([H])([H])[C@]1(C([H])([H])N2C([H])=C([H])[N+](=N2)C([H])([H])[H])[C@]([H])(C(=O)[O-])N3C(=O)C([H])([H])[C@@]3([H])S1(=O)=O

$$$$

  CDK     1104240404

 20 22  0  0  0  0  0  0  0  0999 V2000
    3.1146   -1.0039    0.0000 C   0  0  0  0  0  0  0  0  0  0  0  0
    2.0000   -0.0000    0.0000 C   0  0  2  0  0  0  0  0  0  0  0  0
    3.1146    1.0039    0.0000 C   0  0  0  0  0  0  0  0  0  0  0  0
    4.5412    0.5406    0.0000 N   0  0  0  0  0  0  0  0  0  0  0  0
    5.7457    1.4222    0.0000 C   0  0  0  0  0  0  0  0  0  0  0  0
    6.9615    0.5437    0.0000 C   0  0  0  0  0  0  0  0  0  0  0  0
    6.5028   -0.8767    0.0000 N   0  0  0  0  0  0  0  0  0  0  0  0
    5.0008   -0.8895    0.0000 N   0  0  0  0  0  0  0  0  0  0  0  0
    1.1200   -1.2100    0.0000 C   0  0  2  0  0  0  0  0  0  0  0  0
    1.5853   -2.6360    0.0000 C   0  0  0  0  0  0  0  0  0  0  0  0
    0.5830   -3.7520    0.0000 O   0  0  0  0  0  0  0  0  0  0  0  0
    3.0529   -2.9461    0.0000 O   0  0  0  0  0  0  0  0  0  0  0  0
   -0.3100   -0.7500    0.0000 N   0  0  0  0  0  0  0  0  0  0  0  0
   -1.8100   -0.7500    0.0000 C   0  0  0  0  0  0  0  0  0  0  0  0
   -2.8707   -1.8107    0.0000 O   0  0  0  0  0  0  0  0  0  0  0  0
   -1.8100    0.7500    0.0000 C   0  0  0  0  0  0  0  0  0  0  0  0
   -0.3100    0.7500    0.0000 C   0  0  1  0  0  0  0  0  0  0  0  0
    1.1200    1.2100    0.0000 S   0  0  0  0  0  0  0  0  0  0  0  0
    2.4195    1.9591    0.0000 O   0  0  0  0  0  0  0  0  0  0  0  0
    0.5124    2.5814    0.0000 O   0  0  0  0  0  0  0  0  0  0  0  0
  2  1  1  6  0  0  0 
  2  3  1  1  0  0  0 
  3  4  1  0  0  0  0 
  4  5  1  0  0  0  0 
  5  6  2  0  0  0  0 
  6  7  1  0  0  0  0 
  7  8  2  0  0  0  0 
  4  8  1  0  0  0  0 
  2  9  1  0  0  0  0 
  9 10  1  6  0  0  0 
 10 11  2  0  0  0  0 
 10 12  1  0  0  0  0 
  9 13  1  0  0  0  0 
 13 14  1  0  0  0  0 
 14 15  2  0  0  0  0 
 14 16  1  0  0  0  0 
 16 17  1  0  0  0  0 
 17 13  1  1  0  0  0 
 17 18  1  0  0  0  0 
  2 18  1  0  0  0  0 
 18 19  2  0  0  0  0 
 18 20  2  0  0  0  0 
M  CHG  1   7   1
M  CHG  1  12  -1
M  END
> <Rank>
1

> <Priority_score>
2.5700000000000003

> <Reaction_type>
N-dealkylation

> <Parent_ID>
1

> <Parent_InChI>
InChI=1S/C11H14N4O5S/c1-11(6-14-4-3-13(2)12-14)9(10(17)18)15-7(16)5-8(15)21(11,19)20/h3-4,8-9H,5-6H2,1-2H3/t8-,9+,11+/m1/s1

> <Parent_SMILES>
C([H])([H])([H])[C@]1(C([H])([H])N2C([H])=C([H])[N+](=N2)C([H])([H])[H])[C@]([H])(C(=O)[O-])N3C(=O)C([H])([H])[C@@]3([H])S1(=O)=O

$$$$

  CDK     1104240404

 22 24  0  0  0  0  0  0  0  0999 V2000
    3.1146   -1.0039    0.0000 C   0  0  0  0  0  0  0  0  0  0  0  0
    2.0000   -0.0000    0.0000 C   0  0  2  0  0  0  0  0  0  0  0  0
    3.1146    1.0039    0.0000 C   0  0  0  0  0  0  0  0  0  0  0  0
    4.5412    0.5406    0.0000 N   0  0  0  0  0  0  0  0  0  0  0  0
    5.7457    1.4222    0.0000 C   0  0  0  0  0  0  0  0  0  0  0  0
    6.9615    0.5437    0.0000 C   0  0  0  0  0  0  0  0  0  0  0  0
    6.5028   -0.8767    0.0000 N   0  0  0  0  0  0  0  0  0  0  0  0
    5.0008   -0.8895    0.0000 N   0  0  0  0  0  0  0  0  0  0  0  0
    6.3554   -2.3694    0.0000 C   0  0  0  0  0  0  0  0  0  0  0  0
    7.9713   -1.1827    0.0000 O   0  0  0  0  0  0  0  0  0  0  0  0
    1.1200   -1.2100    0.0000 C   0  0  2  0  0  0  0  0  0  0  0  0
    1.5853   -2.6360    0.0000 C   0  0  0  0  0  0  0  0  0  0  0  0
    0.5830   -3.7520    0.0000 O   0  0  0  0  0  0  0  0  0  0  0  0
    3.0529   -2.9461    0.0000 O   0  0  0  0  0  0  0  0  0  0  0  0
   -0.3100   -0.7500    0.0000 N   0  0  0  0  0  0  0  0  0  0  0  0
   -1.8100   -0.7500    0.0000 C   0  0  0  0  0  0  0  0  0  0  0  0
   -2.8707   -1.8107    0.0000 O   0  0  0  0  0  0  0  0  0  0  0  0
   -1.8100    0.7500    0.0000 C   0  0  0  0  0  0  0  0  0  0  0  0
   -0.3100    0.7500    0.0000 C   0  0  1  0  0  0  0  0  0  0  0  0
    1.1200    1.2100    0.0000 S   0  0  0  0  0  0  0  0  0  0  0  0
    2.4195    1.9591    0.0000 O   0  0  0  0  0  0  0  0  0  0  0  0
    0.5124    2.5814    0.0000 O   0  0  0  0  0  0  0  0  0  0  0  0
  2  1  1  6  0  0  0 
  2  3  1  1  0  0  0 
  3  4  1  0  0  0  0 
  4  5  1  0  0  0  0 
  5  6  2  0  0  0  0 
  6  7  1  0  0  0  0 
  7  8  2  0  0  0  0 
  4  8  1  0  0  0  0 
  7  9  1  0  0  0  0 
  7 10  1  0  0  0  0 
  2 11  1  0  0  0  0 
 11 12  1  6  0  0  0 
 12 13  2  0  0  0  0 
 12 14  1  0  0  0  0 
 11 15  1  0  0  0  0 
 15 16  1  0  0  0  0 
 16 17  2  0  0  0  0 
 16 18  1  0  0  0  0 
 18 19  1  0  0  0  0 
 19 15  1  1  0  0  0 
 19 20  1  0  0  0  0 
  2 20  1  0  0  0  0 
 20 21  2  0  0  0  0 
 20 22  2  0  0  0  0 
M  CHG  1   7   1
M  CHG  1  10  -1
M  CHG  1  14  -1
M  END
> <Rank>
1

> <Priority_score>
2.5700000000000003

> <Reaction_type>
N-oxidation

> <Parent_ID>
1

> <Parent_InChI>
InChI=1S/C11H14N4O5S/c1-11(6-14-4-3-13(2)12-14)9(10(17)18)15-7(16)5-8(15)21(11,19)20/h3-4,8-9H,5-6H2,1-2H3/t8-,9+,11+/m1/s1

> <Parent_SMILES>
C([H])([H])([H])[C@]1(C([H])([H])N2C([H])=C([H])[N+](=N2)C([H])([H])[H])[C@]([H])(C(=O)[O-])N3C(=O)C([H])([H])[C@@]3([H])S1(=O)=O

$$$$

  CDK     1104240404

 22 24  0  0  0  0  0  0  0  0999 V2000
    3.1146   -1.0039    0.0000 C   0  0  0  0  0  0  0  0  0  0  0  0
    2.0000   -0.0000    0.0000 C   0  0  2  0  0  0  0  0  0  0  0  0
    3.1146    1.0039    0.0000 C   0  0  0  0  0  0  0  0  0  0  0  0
    4.5412    0.5406    0.0000 N   0  0  0  0  0  0  0  0  0  0  0  0
    5.7457    1.4222    0.0000 C   0  0  0  0  0  0  0  0  0  0  0  0
    6.9615    0.5437    0.0000 C   0  0  0  0  0  0  0  0  0  0  0  0
    6.5028   -0.8767    0.0000 N   0  0  0  0  0  0  0  0  0  0  0  0
    5.0008   -0.8895    0.0000 N   0  0  0  0  0  0  0  0  0  0  0  0
    7.3907   -2.0857    0.0000 C   0  0  0  0  0  0  0  0  0  0  0  0
    1.1200   -1.2100    0.0000 C   0  0  2  0  0  0  0  0  0  0  0  0
    1.5853   -2.6360    0.0000 C   0  0  0  0  0  0  0  0  0  0  0  0
    0.5830   -3.7520    0.0000 O   0  0  0  0  0  0  0  0  0  0  0  0
    3.0529   -2.9461    0.0000 O   0  0  0  0  0  0  0  0  0  0  0  0
   -0.3100   -0.7500    0.0000 N   0  0  0  0  0  0  0  0  0  0  0  0
   -1.8100   -0.7500    0.0000 C   0  0  0  0  0  0  0  0  0  0  0  0
   -2.8707   -1.8107    0.0000 O   0  0  0  0  0  0  0  0  0  0  0  0
   -1.8100    0.7500    0.0000 C   0  0  0  0  0  0  0  0  0  0  0  0
   -0.3100    0.7500    0.0000 C   0  0  1  0  0  0  0  0  0  0  0  0
    1.1200    1.2100    0.0000 S   0  0  0  0  0  0  0  0  0  0  0  0
    2.4195    1.9591    0.0000 O   0  0  0  0  0  0  0  0  0  0  0  0
    0.5124    2.5814    0.0000 O   0  0  0  0  0  0  0  0  0  0  0  0
   -2.8707    1.8107    0.0000 O   0  0  0  0  0  0  0  0  0  0  0  0
  2  1  1  6  0  0  0 
  2  3  1  1  0  0  0 
  3  4  1  0  0  0  0 
  4  5  1  0  0  0  0 
  5  6  2  0  0  0  0 
  6  7  1  0  0  0  0 
  7  8  2  0  0  0  0 
  4  8  1  0  0  0  0 
  7  9  1  0  0  0  0 
  2 10  1  0  0  0  0 
 10 11  1  6  0  0  0 
 11 12  2  0  0  0  0 
 11 13  1  0  0  0  0 
 10 14  1  0  0  0  0 
 14 15  1  0  0  0  0 
 15 16  2  0  0  0  0 
 15 17  1  0  0  0  0 
 17 18  1  0  0  0  0 
 18 14  1  1  0  0  0 
 18 19  1  0  0  0  0 
  2 19  1  0  0  0  0 
 19 20  2  0  0  0  0 
 19 21  2  0  0  0  0 
 17 22  1  0  0  0  0 
M  CHG  1   7   1
M  CHG  1  13  -1
M  END
> <Rank>
4

> <Priority_score>
1.4000000000000001

> <Reaction_type>
aliphatic hydroxylation

> <Parent_ID>
1

> <Parent_InChI>
InChI=1S/C11H14N4O5S/c1-11(6-14-4-3-13(2)12-14)9(10(17)18)15-7(16)5-8(15)21(11,19)20/h3-4,8-9H,5-6H2,1-2H3/t8-,9+,11+/m1/s1

> <Parent_SMILES>
C([H])([H])([H])[C@]1(C([H])([H])N2C([H])=C([H])[N+](=N2)C([H])([H])[H])[C@]([H])(C(=O)[O-])N3C(=O)C([H])([H])[C@@]3([H])S1(=O)=O

$$$$

  CDK     1104240404

 21 23  0  0  0  0  0  0  0  0999 V2000
    3.1146   -1.0039    0.0000 C   0  0  0  0  0  0  0  0  0  0  0  0
    2.0000   -0.0000    0.0000 C   0  0  2  0  0  0  0  0  0  0  0  0
    3.1146    1.0039    0.0000 C   0  0  0  0  0  0  0  0  0  0  0  0
    4.5412    0.5406    0.0000 N   0  0  0  0  0  0  0  0  0  0  0  0
    5.7457    1.4222    0.0000 C   0  0  0  0  0  0  0  0  0  0  0  0
    6.9615    0.5437    0.0000 C   0  0  0  0  0  0  0  0  0  0  0  0
    6.5028   -0.8767    0.0000 N   0  0  0  0  0  0  0  0  0  0  0  0
    5.0008   -0.8895    0.0000 N   0  0  0  0  0  0  0  0  0  0  0  0
    7.3907   -2.0857    0.0000 C   0  0  0  0  0  0  0  0  0  0  0  0
    1.1200   -1.2100    0.0000 C   0  0  2  0  0  0  0  0  0  0  0  0
    1.5853   -2.6360    0.0000 C   0  0  0  0  0  0  0  0  0  0  0  0
    0.5830   -3.7520    0.0000 O   0  0  0  0  0  0  0  0  0  0  0  0
    3.0529   -2.9461    0.0000 O   0  0  0  0  0  0  0  0  0  0  0  0
   -0.3100   -0.7500    0.0000 N   0  0  0  0  0  0  0  0  0  0  0  0
   -1.8100   -0.7500    0.0000 C   0  0  0  0  0  0  0  0  0  0  0  0
   -2.8707   -1.8107    0.0000 O   0  0  0  0  0  0  0  0  0  0  0  0
   -1.8100    0.7500    0.0000 C   0  0  0  0  0  0  0  0  0  0  0  0
   -0.3100    0.7500    0.0000 C   0  0  0  0  0  0  0  0  0  0  0  0
    1.1200    1.2100    0.0000 S   0  0  0  0  0  0  0  0  0  0  0  0
    2.4195    1.9591    0.0000 O   0  0  0  0  0  0  0  0  0  0  0  0
    0.5124    2.5814    0.0000 O   0  0  0  0  0  0  0  0  0  0  0  0
  2  1  1  6  0  0  0 
  2  3  1  1  0  0  0 
  3  4  1  0  0  0  0 
  4  5  1  0  0  0  0 
  5  6  2  0  0  0  0 
  6  7  1  0  0  0  0 
  7  8  2  0  0  0  0 
  4  8  1  0  0  0  0 
  7  9  1  0  0  0  0 
  2 10  1  0  0  0  0 
 10 11  1  6  0  0  0 
 11 12  2  0  0  0  0 
 11 13  1  0  0  0  0 
 10 14  1  0  0  0  0 
 14 15  1  0  0  0  0 
 15 16  2  0  0  0  0 
 15 17  1  0  0  0  0 
 17 18  2  0  0  0  0 
 14 18  1  0  0  0  0 
 18 19  1  0  0  0  0 
  2 19  1  0  0  0  0 
 19 20  2  0  0  0  0 
 19 21  2  0  0  0  0 
M  CHG  1   7   1
M  CHG  1  13  -1
M  END
> <Rank>
5

> <Priority_score>
0.28

> <Reaction_type>
alkyl dehydrogenation

> <Parent_ID>
1

> <Parent_InChI>
InChI=1S/C11H14N4O5S/c1-11(6-14-4-3-13(2)12-14)9(10(17)18)15-7(16)5-8(15)21(11,19)20/h3-4,8-9H,5-6H2,1-2H3/t8-,9+,11+/m1/s1

> <Parent_SMILES>
C([H])([H])([H])[C@]1(C([H])([H])N2C([H])=C([H])[N+](=N2)C([H])([H])[H])[C@]([H])(C(=O)[O-])N3C(=O)C([H])([H])[C@@]3([H])S1(=O)=O

$$$$

  CDK     1104240404

 21 22  0  0  0  0  0  0  0  0999 V2000
    1.1707    5.3293    0.0000 C   0  0  0  0  0  0  0  0  0  0  0  0
    1.9254    4.0330    0.0000 C   0  0  0  0  0  0  0  0  0  0  0  0
    1.3186    2.6693    0.0000 N   0  0  0  0  0  0  0  0  0  0  0  0
   -0.1484    2.3564    0.0000 C   0  0  0  0  0  0  0  0  0  0  0  0
   -0.6110    0.9295    0.0000 O   0  0  0  0  0  0  0  0  0  0  0  0
    2.4344    1.6668    0.0000 C   0  0  1  0  0  0  0  0  0  0  0  0
    2.2800    0.1748    0.0000 C   0  0  0  0  0  0  0  0  0  0  0  0
    0.9106   -0.4375    0.0000 O   0  0  0  0  0  0  0  0  0  0  0  0
    3.4949   -0.7050    0.0000 O   0  0  0  0  0  0  0  0  0  0  0  0
    3.7256    2.4157    0.0000 C   0  0  2  0  0  0  0  0  0  0  0  0
    4.3354    1.0453    0.0000 C   0  0  0  0  0  0  0  0  0  0  0  0
    5.1533    2.8757    0.0000 C   0  0  0  0  0  0  0  0  0  0  0  0
    6.2655    1.8692    0.0000 N   0  0  0  0  0  0  0  0  0  0  0  0
    6.1008    0.3857    0.0000 C   0  0  0  0  0  0  0  0  0  0  0  0
    7.4681   -0.2312    0.0000 C   0  0  0  0  0  0  0  0  0  0  0  0
    8.4714    0.8739    0.0000 N   0  0  0  0  0  0  0  0  0  0  0  0
    7.7345    2.1828    0.0000 N   0  0  0  0  0  0  0  0  0  0  0  0
    9.9620    0.7060    0.0000 C   0  0  0  0  0  0  0  0  0  0  0  0
    3.4202    3.8864    0.0000 S   0  0  0  0  0  0  0  0  0  0  0  0
    4.9122    4.0420    0.0000 O   0  0  0  0  0  0  0  0  0  0  0  0
    3.4156    5.3864    0.0000 O   0  0  0  0  0  0  0  0  0  0  0  0
  1  2  2  0  0  0  0 
  2  3  1  0  0  0  0 
  3  4  1  0  0  0  0 
  4  5  2  0  0  0  0 
  3  6  1  0  0  0  0 
  6  7  1  6  0  0  0 
  7  8  2  0  0  0  0 
  7  9  1  0  0  0  0 
  6 10  1  0  0  0  0 
 10 11  1  6  0  0  0 
 10 12  1  1  0  0  0 
 12 13  1  0  0  0  0 
 13 14  1  0  0  0  0 
 14 15  2  0  0  0  0 
 15 16  1  0  0  0  0 
 16 17  2  0  0  0  0 
 13 17  1  0  0  0  0 
 16 18  1  0  0  0  0 
 10 19  1  0  0  0  0 
  2 19  1  0  0  0  0 
 19 20  2  0  0  0  0 
 19 21  2  0  0  0  0 
M  CHG  1   9  -1
M  CHG  1  16   1
M  END
> <Rank>
5

> <Priority_score>
0.28

> <Reaction_type>
deformylation

> <Parent_ID>
1

> <Parent_InChI>
InChI=1S/C11H14N4O5S/c1-11(6-14-4-3-13(2)12-14)9(10(17)18)15-7(16)5-8(15)21(11,19)20/h3-4,8-9H,5-6H2,1-2H3/t8-,9+,11+/m1/s1

> <Parent_SMILES>
C([H])([H])([H])[C@]1(C([H])([H])N2C([H])=C([H])[N+](=N2)C([H])([H])[H])[C@]([H])(C(=O)[O-])N3C(=O)C([H])([H])[C@@]3([H])S1(=O)=O

$$$$
