
  CDK     1104240418

 18 19  0  0  0  0  0  0  0  0999 V2000
   -1.2900   -1.5000    0.0000 C   0  0  0  0  0  0  0  0  0  0  0  0
    0.0000   -0.7500    0.0000 C   0  0  0  0  0  0  0  0  0  0  0  0
    0.0000    0.7500    0.0000 C   0  0  0  0  0  0  0  0  0  0  0  0
   -1.2900    1.5000    0.0000 C   0  0  0  0  0  0  0  0  0  0  0  0
   -2.6000    0.7500    0.0000 C   0  0  0  0  0  0  0  0  0  0  0  0
   -2.6000   -0.7500    0.0000 C   0  0  0  0  0  0  0  0  0  0  0  0
   -3.8977   -1.5024    0.0000 Cl  0  0  0  0  0  0  0  0  0  0  0  0
   -3.8977    1.5024    0.0000 S   0  0  0  0  0  0  0  0  0  0  0  0
   -2.9314    2.6497    0.0000 O   0  0  0  0  0  0  0  0  0  0  0  0
   -4.8598    2.6532    0.0000 O   0  0  0  0  0  0  0  0  0  0  0  0
   -5.1981    0.7547    0.0000 N   0  0  0  0  0  0  0  0  0  0  0  0
    1.3000    1.5000    0.0000 S   0  0  0  0  0  0  0  0  0  0  0  0
    2.2641    2.6492    0.0000 O   0  0  0  0  0  0  0  0  0  0  0  0
    0.3359    2.6492    0.0000 O   0  0  0  0  0  0  0  0  0  0  0  0
    2.6000    0.7500    0.0000 N   0  0  0  0  0  0  0  0  0  0  0  0
    2.6000   -0.7500    0.0000 C   0  0  0  0  0  0  0  0  0  0  0  0
    1.3000   -1.5000    0.0000 N   0  0  0  0  0  0  0  0  0  0  0  0
    1.3000   -3.0000    0.0000 O   0  0  0  0  0  0  0  0  0  0  0  0
  1  2  2  0  0  0  0 
  2  3  1  0  0  0  0 
  3  4  2  0  0  0  0 
  4  5  1  0  0  0  0 
  5  6  2  0  0  0  0 
  1  6  1  0  0  0  0 
  6  7  1  0  0  0  0 
  5  8  1  0  0  0  0 
  8  9  2  0  0  0  0 
  8 10  2  0  0  0  0 
  8 11  1  0  0  0  0 
  3 12  1  0  0  0  0 
 12 13  2  0  0  0  0 
 12 14  2  0  0  0  0 
 12 15  1  0  0  0  0 
 15 16  1  0  0  0  0 
 16 17  1  0  0  0  0 
  2 17  1  0  0  0  0 
 17 18  1  0  0  0  0 
M  END
> <Rank>
1

> <Priority_score>
2.9699999999999998

> <Reaction_type>
amine hydroxylation

> <Parent_ID>
1

> <Parent_InChI>
InChI=1S/C7H8ClN3O4S2/c8-4-1-5-7(2-6(4)16(9,12)13)17(14,15)11-3-10-5/h1-2,10-11H,3H2,(H2,9,12,13)

> <Parent_SMILES>
C1([H])=C2C(=C([H])C(=C1Cl)S(=O)(=O)N([H])[H])S(=O)(=O)N([H])C([H])([H])N2[H]

$$$$

  CDK     1104240418

 18 19  0  0  0  0  0  0  0  0999 V2000
   -1.2900   -1.5000    0.0000 C   0  0  0  0  0  0  0  0  0  0  0  0
    0.0000   -0.7500    0.0000 C   0  0  0  0  0  0  0  0  0  0  0  0
    0.0000    0.7500    0.0000 C   0  0  0  0  0  0  0  0  0  0  0  0
   -1.2900    1.5000    0.0000 C   0  0  0  0  0  0  0  0  0  0  0  0
   -2.6000    0.7500    0.0000 C   0  0  0  0  0  0  0  0  0  0  0  0
   -2.6000   -0.7500    0.0000 C   0  0  0  0  0  0  0  0  0  0  0  0
   -3.8977   -1.5024    0.0000 Cl  0  0  0  0  0  0  0  0  0  0  0  0
   -3.8977    1.5024    0.0000 S   0  0  0  0  0  0  0  0  0  0  0  0
   -2.9314    2.6497    0.0000 O   0  0  0  0  0  0  0  0  0  0  0  0
   -4.8598    2.6532    0.0000 O   0  0  0  0  0  0  0  0  0  0  0  0
   -5.1981    0.7547    0.0000 N   0  0  0  0  0  0  0  0  0  0  0  0
    1.3000    1.5000    0.0000 S   0  0  0  0  0  0  0  0  0  0  0  0
    2.2641    2.6492    0.0000 O   0  0  0  0  0  0  0  0  0  0  0  0
    0.3359    2.6492    0.0000 O   0  0  0  0  0  0  0  0  0  0  0  0
    2.6000    0.7500    0.0000 N   0  0  0  0  0  0  0  0  0  0  0  0
    2.6000   -0.7500    0.0000 C   0  0  0  0  0  0  0  0  0  0  0  0
    1.3000   -1.5000    0.0000 N   0  0  0  0  0  0  0  0  0  0  0  0
    3.8989    1.5002    0.0000 O   0  0  0  0  0  0  0  0  0  0  0  0
  1  2  2  0  0  0  0 
  2  3  1  0  0  0  0 
  3  4  2  0  0  0  0 
  4  5  1  0  0  0  0 
  5  6  2  0  0  0  0 
  1  6  1  0  0  0  0 
  6  7  1  0  0  0  0 
  5  8  1  0  0  0  0 
  8  9  2  0  0  0  0 
  8 10  2  0  0  0  0 
  8 11  1  0  0  0  0 
  3 12  1  0  0  0  0 
 12 13  2  0  0  0  0 
 12 14  2  0  0  0  0 
 12 15  1  0  0  0  0 
 15 16  1  0  0  0  0 
 16 17  1  0  0  0  0 
  2 17  1  0  0  0  0 
 15 18  1  0  0  0  0 
M  END
> <Rank>
1

> <Priority_score>
2.9699999999999998

> <Reaction_type>
amine hydroxylation

> <Parent_ID>
1

> <Parent_InChI>
InChI=1S/C7H8ClN3O4S2/c8-4-1-5-7(2-6(4)16(9,12)13)17(14,15)11-3-10-5/h1-2,10-11H,3H2,(H2,9,12,13)

> <Parent_SMILES>
C1([H])=C2C(=C([H])C(=C1Cl)S(=O)(=O)N([H])[H])S(=O)(=O)N([H])C([H])([H])N2[H]

$$$$

  CDK     1104240418

 18 18  0  0  0  0  0  0  0  0999 V2000
    0.0047    2.3507    0.0000 C   0  0  0  0  0  0  0  0  0  0  0  0
    1.3042    1.5999    0.0000 C   0  0  0  0  0  0  0  0  0  0  0  0
    1.3047    0.0990    0.0000 C   0  0  0  0  0  0  0  0  0  0  0  0
    0.0057   -0.6510    0.0000 C   0  0  0  0  0  0  0  0  0  0  0  0
   -1.2939    0.0999    0.0000 C   0  0  0  0  0  0  0  0  0  0  0  0
   -1.2943    1.6007    0.0000 C   0  0  0  0  0  0  0  0  0  0  0  0
   -2.5935    2.3505    0.0000 Cl  0  0  0  0  0  0  0  0  0  0  0  0
   -2.5929   -0.6501    0.0000 S   0  0  0  0  0  0  0  0  0  0  0  0
   -3.1059    0.7594    0.0000 O   0  0  0  0  0  0  0  0  0  0  0  0
   -4.0701   -0.9106    0.0000 O   0  0  0  0  0  0  0  0  0  0  0  0
   -2.5929   -2.1501    0.0000 N   0  0  0  0  0  0  0  0  0  0  0  0
    2.6039   -0.6508    0.0000 S   0  0  0  0  0  0  0  0  0  0  0  0
    1.6399   -1.8000    0.0000 O   0  0  0  0  0  0  0  0  0  0  0  0
    3.5682   -1.7997    0.0000 O   0  0  0  0  0  0  0  0  0  0  0  0
    3.9028    0.0994    0.0000 N   0  0  0  0  0  0  0  0  0  0  0  0
    5.2019   -0.6504    0.0000 C   0  0  0  0  0  0  0  0  0  0  0  0
    6.5009    0.0999    0.0000 O   0  0  0  0  0  0  0  0  0  0  0  0
    2.6033    2.3499    0.0000 N   0  0  0  0  0  0  0  0  0  0  0  0
  1  2  2  0  0  0  0 
  2  3  1  0  0  0  0 
  3  4  2  0  0  0  0 
  4  5  1  0  0  0  0 
  5  6  2  0  0  0  0 
  1  6  1  0  0  0  0 
  6  7  1  0  0  0  0 
  5  8  1  0  0  0  0 
  8  9  2  0  0  0  0 
  8 10  2  0  0  0  0 
  8 11  1  0  0  0  0 
  3 12  1  0  0  0  0 
 12 13  2  0  0  0  0 
 12 14  2  0  0  0  0 
 12 15  1  0  0  0  0 
 15 16  1  0  0  0  0 
 16 17  2  0  0  0  0 
  2 18  1  0  0  0  0 
M  END
> <Rank>
1

> <Priority_score>
2.9699999999999998

> <Reaction_type>
N-dealkylation

> <Parent_ID>
1

> <Parent_InChI>
InChI=1S/C7H8ClN3O4S2/c8-4-1-5-7(2-6(4)16(9,12)13)17(14,15)11-3-10-5/h1-2,10-11H,3H2,(H2,9,12,13)

> <Parent_SMILES>
C1([H])=C2C(=C([H])C(=C1Cl)S(=O)(=O)N([H])[H])S(=O)(=O)N([H])C([H])([H])N2[H]

$$$$

  CDK     1104240418

 18 19  0  0  0  0  0  0  0  0999 V2000
   -1.2900   -1.5000    0.0000 C   0  0  0  0  0  0  0  0  0  0  0  0
    0.0000   -0.7500    0.0000 C   0  0  0  0  0  0  0  0  0  0  0  0
    0.0000    0.7500    0.0000 C   0  0  0  0  0  0  0  0  0  0  0  0
   -1.2900    1.5000    0.0000 C   0  0  0  0  0  0  0  0  0  0  0  0
   -2.6000    0.7500    0.0000 C   0  0  0  0  0  0  0  0  0  0  0  0
   -2.6000   -0.7500    0.0000 C   0  0  0  0  0  0  0  0  0  0  0  0
   -3.8977   -1.5024    0.0000 Cl  0  0  0  0  0  0  0  0  0  0  0  0
   -3.8977    1.5024    0.0000 S   0  0  0  0  0  0  0  0  0  0  0  0
   -2.9314    2.6497    0.0000 O   0  0  0  0  0  0  0  0  0  0  0  0
   -4.8598    2.6532    0.0000 O   0  0  0  0  0  0  0  0  0  0  0  0
   -5.1981    0.7547    0.0000 N   0  0  0  0  0  0  0  0  0  0  0  0
    1.3000    1.5000    0.0000 S   0  0  0  0  0  0  0  0  0  0  0  0
    2.2641    2.6492    0.0000 O   0  0  0  0  0  0  0  0  0  0  0  0
    0.3359    2.6492    0.0000 O   0  0  0  0  0  0  0  0  0  0  0  0
    2.6000    0.7500    0.0000 N   0  0  0  0  0  0  0  0  0  0  0  0
    2.6000   -0.7500    0.0000 C   0  0  0  0  0  0  0  0  0  0  0  0
    1.3000   -1.5000    0.0000 N   0  0  0  0  0  0  0  0  0  0  0  0
    3.8989   -1.5002    0.0000 O   0  0  0  0  0  0  0  0  0  0  0  0
  1  2  2  0  0  0  0 
  2  3  1  0  0  0  0 
  3  4  2  0  0  0  0 
  4  5  1  0  0  0  0 
  5  6  2  0  0  0  0 
  1  6  1  0  0  0  0 
  6  7  1  0  0  0  0 
  5  8  1  0  0  0  0 
  8  9  2  0  0  0  0 
  8 10  2  0  0  0  0 
  8 11  1  0  0  0  0 
  3 12  1  0  0  0  0 
 12 13  2  0  0  0  0 
 12 14  2  0  0  0  0 
 12 15  1  0  0  0  0 
 15 16  1  0  0  0  0 
 16 17  1  0  0  0  0 
  2 17  1  0  0  0  0 
 16 18  1  0  0  0  0 
M  END
> <Rank>
1

> <Priority_score>
2.9699999999999998

> <Reaction_type>
aliphatic hydroxylation

> <Parent_ID>
1

> <Parent_InChI>
InChI=1S/C7H8ClN3O4S2/c8-4-1-5-7(2-6(4)16(9,12)13)17(14,15)11-3-10-5/h1-2,10-11H,3H2,(H2,9,12,13)

> <Parent_SMILES>
C1([H])=C2C(=C([H])C(=C1Cl)S(=O)(=O)N([H])[H])S(=O)(=O)N([H])C([H])([H])N2[H]

$$$$

  CDK     1104240418

 18 18  0  0  0  0  0  0  0  0999 V2000
    2.7772    0.0905    0.0000 C   0  0  0  0  0  0  0  0  0  0  0  0
    1.4772   -0.6595    0.0000 C   0  0  0  0  0  0  0  0  0  0  0  0
    0.1772    0.0905    0.0000 C   0  0  0  0  0  0  0  0  0  0  0  0
    0.1772    1.5905    0.0000 C   0  0  0  0  0  0  0  0  0  0  0  0
    1.4772    2.3405    0.0000 C   0  0  0  0  0  0  0  0  0  0  0  0
    2.7772    1.5905    0.0000 C   0  0  0  0  0  0  0  0  0  0  0  0
    4.0761    2.3407    0.0000 Cl  0  0  0  0  0  0  0  0  0  0  0  0
    1.4772    3.8405    0.0000 S   0  0  0  0  0  0  0  0  0  0  0  0
    2.9544    3.5800    0.0000 O   0  0  0  0  0  0  0  0  0  0  0  0
    1.9902    5.2500    0.0000 O   0  0  0  0  0  0  0  0  0  0  0  0
    0.1781    4.5905    0.0000 N   0  0  0  0  0  0  0  0  0  0  0  0
   -1.1217   -0.6597    0.0000 S   0  0  0  0  0  0  0  0  0  0  0  0
   -1.6350    0.7497    0.0000 O   0  0  0  0  0  0  0  0  0  0  0  0
   -2.5989   -0.9205    0.0000 O   0  0  0  0  0  0  0  0  0  0  0  0
   -1.1215   -2.1597    0.0000 N   0  0  0  0  0  0  0  0  0  0  0  0
    1.4772   -2.1595    0.0000 N   0  0  0  0  0  0  0  0  0  0  0  0
    2.7762   -2.9095    0.0000 C   0  0  0  0  0  0  0  0  0  0  0  0
    2.7762   -4.4095    0.0000 O   0  0  0  0  0  0  0  0  0  0  0  0
  1  2  2  0  0  0  0 
  2  3  1  0  0  0  0 
  3  4  2  0  0  0  0 
  4  5  1  0  0  0  0 
  5  6  2  0  0  0  0 
  1  6  1  0  0  0  0 
  6  7  1  0  0  0  0 
  5  8  1  0  0  0  0 
  8  9  2  0  0  0  0 
  8 10  2  0  0  0  0 
  8 11  1  0  0  0  0 
  3 12  1  0  0  0  0 
 12 13  2  0  0  0  0 
 12 14  2  0  0  0  0 
 12 15  1  0  0  0  0 
  2 16  1  0  0  0  0 
 16 17  1  0  0  0  0 
 17 18  2  0  0  0  0 
M  END
> <Rank>
1

> <Priority_score>
2.9699999999999998

> <Reaction_type>
N-dealkylation

> <Parent_ID>
1

> <Parent_InChI>
InChI=1S/C7H8ClN3O4S2/c8-4-1-5-7(2-6(4)16(9,12)13)17(14,15)11-3-10-5/h1-2,10-11H,3H2,(H2,9,12,13)

> <Parent_SMILES>
C1([H])=C2C(=C([H])C(=C1Cl)S(=O)(=O)N([H])[H])S(=O)(=O)N([H])C([H])([H])N2[H]

$$$$

  CDK     1104240418

 17 18  0  0  0  0  0  0  0  0999 V2000
   -1.2900   -1.5000    0.0000 C   0  0  0  0  0  0  0  0  0  0  0  0
   -2.6000   -0.7500    0.0000 C   0  0  0  0  0  0  0  0  0  0  0  0
   -2.6000    0.7500    0.0000 C   0  0  0  0  0  0  0  0  0  0  0  0
   -1.2900    1.5000    0.0000 C   0  0  0  0  0  0  0  0  0  0  0  0
    0.0000    0.7500    0.0000 C   0  0  0  0  0  0  0  0  0  0  0  0
    0.0000   -0.7500    0.0000 C   0  0  0  0  0  0  0  0  0  0  0  0
    1.3000   -1.5000    0.0000 N   0  0  0  0  0  0  0  0  0  0  0  0
    2.6000   -0.7500    0.0000 C   0  0  0  0  0  0  0  0  0  0  0  0
    2.6000    0.7500    0.0000 N   0  0  0  0  0  0  0  0  0  0  0  0
    1.3000    1.5000    0.0000 S   0  0  0  0  0  0  0  0  0  0  0  0
    2.2641    2.6492    0.0000 O   0  0  0  0  0  0  0  0  0  0  0  0
    0.3359    2.6492    0.0000 O   0  0  0  0  0  0  0  0  0  0  0  0
   -3.8977    1.5024    0.0000 S   0  0  0  0  0  0  0  0  0  0  0  0
   -2.9314    2.6497    0.0000 O   0  0  0  0  0  0  0  0  0  0  0  0
   -4.8598    2.6532    0.0000 O   0  0  0  0  0  0  0  0  0  0  0  0
   -5.1981    0.7547    0.0000 N   0  0  0  0  0  0  0  0  0  0  0  0
   -3.8977   -1.5024    0.0000 Cl  0  0  0  0  0  0  0  0  0  0  0  0
  1  2  2  0  0  0  0 
  2  3  1  0  0  0  0 
  3  4  2  0  0  0  0 
  4  5  1  0  0  0  0 
  5  6  2  0  0  0  0 
  1  6  1  0  0  0  0 
  6  7  1  0  0  0  0 
  7  8  2  0  0  0  0 
  8  9  1  0  0  0  0 
  9 10  1  0  0  0  0 
  5 10  1  0  0  0  0 
 10 11  2  0  0  0  0 
 10 12  2  0  0  0  0 
  3 13  1  0  0  0  0 
 13 14  2  0  0  0  0 
 13 15  2  0  0  0  0 
 13 16  1  0  0  0  0 
  2 17  1  0  0  0  0 
M  END
> <Rank>
6

> <Priority_score>
0.594

> <Reaction_type>
dehydration of N-C bond

> <Parent_ID>
1

> <Parent_InChI>
InChI=1S/C7H8ClN3O4S2/c8-4-1-5-7(2-6(4)16(9,12)13)17(14,15)11-3-10-5/h1-2,10-11H,3H2,(H2,9,12,13)

> <Parent_SMILES>
C1([H])=C2C(=C([H])C(=C1Cl)S(=O)(=O)N([H])[H])S(=O)(=O)N([H])C([H])([H])N2[H]

$$$$

  CDK     1104240418

 17 18  0  0  0  0  0  0  0  0999 V2000
   -1.2900   -1.5000    0.0000 C   0  0  0  0  0  0  0  0  0  0  0  0
    0.0000   -0.7500    0.0000 C   0  0  0  0  0  0  0  0  0  0  0  0
    0.0000    0.7500    0.0000 C   0  0  0  0  0  0  0  0  0  0  0  0
   -1.2900    1.5000    0.0000 C   0  0  0  0  0  0  0  0  0  0  0  0
   -2.6000    0.7500    0.0000 C   0  0  0  0  0  0  0  0  0  0  0  0
   -2.6000   -0.7500    0.0000 C   0  0  0  0  0  0  0  0  0  0  0  0
   -3.8977   -1.5024    0.0000 Cl  0  0  0  0  0  0  0  0  0  0  0  0
   -3.8977    1.5024    0.0000 S   0  0  0  0  0  0  0  0  0  0  0  0
   -2.9314    2.6497    0.0000 O   0  0  0  0  0  0  0  0  0  0  0  0
   -4.8598    2.6532    0.0000 O   0  0  0  0  0  0  0  0  0  0  0  0
   -5.1981    0.7547    0.0000 N   0  0  0  0  0  0  0  0  0  0  0  0
    1.3000    1.5000    0.0000 S   0  0  0  0  0  0  0  0  0  0  0  0
    2.2641    2.6492    0.0000 O   0  0  0  0  0  0  0  0  0  0  0  0
    0.3359    2.6492    0.0000 O   0  0  0  0  0  0  0  0  0  0  0  0
    2.6000    0.7500    0.0000 N   0  0  0  0  0  0  0  0  0  0  0  0
    2.6000   -0.7500    0.0000 C   0  0  0  0  0  0  0  0  0  0  0  0
    1.3000   -1.5000    0.0000 N   0  0  0  0  0  0  0  0  0  0  0  0
  1  2  2  0  0  0  0 
  2  3  1  0  0  0  0 
  3  4  2  0  0  0  0 
  4  5  1  0  0  0  0 
  5  6  2  0  0  0  0 
  1  6  1  0  0  0  0 
  6  7  1  0  0  0  0 
  5  8  1  0  0  0  0 
  8  9  2  0  0  0  0 
  8 10  2  0  0  0  0 
  8 11  1  0  0  0  0 
  3 12  1  0  0  0  0 
 12 13  2  0  0  0  0 
 12 14  2  0  0  0  0 
 12 15  1  0  0  0  0 
 15 16  1  0  0  0  0 
 16 17  1  0  0  0  0 
  2 17  1  0  0  0  0 
M  END
> <Rank>
6

> <Priority_score>
0.594

> <Reaction_type>
cyclization to 6-membered NCN ring

> <Parent_ID>
1

> <Parent_InChI>
InChI=1S/C7H8ClN3O4S2/c8-4-1-5-7(2-6(4)16(9,12)13)17(14,15)11-3-10-5/h1-2,10-11H,3H2,(H2,9,12,13)

> <Parent_SMILES>
C1([H])=C2C(=C([H])C(=C1Cl)S(=O)(=O)N([H])[H])S(=O)(=O)N([H])C([H])([H])N2[H]

$$$$

  CDK     1104240418

 17 18  0  0  0  0  0  0  0  0999 V2000
   -1.2900   -1.5000    0.0000 C   0  0  0  0  0  0  0  0  0  0  0  0
   -2.6000   -0.7500    0.0000 C   0  0  0  0  0  0  0  0  0  0  0  0
   -2.6000    0.7500    0.0000 C   0  0  0  0  0  0  0  0  0  0  0  0
   -1.2900    1.5000    0.0000 C   0  0  0  0  0  0  0  0  0  0  0  0
    0.0000    0.7500    0.0000 C   0  0  0  0  0  0  0  0  0  0  0  0
    0.0000   -0.7500    0.0000 C   0  0  0  0  0  0  0  0  0  0  0  0
    1.3000   -1.5000    0.0000 N   0  0  0  0  0  0  0  0  0  0  0  0
    2.6000   -0.7500    0.0000 C   0  0  0  0  0  0  0  0  0  0  0  0
    2.6000    0.7500    0.0000 N   0  0  0  0  0  0  0  0  0  0  0  0
    1.3000    1.5000    0.0000 S   0  0  0  0  0  0  0  0  0  0  0  0
    2.2641    2.6492    0.0000 O   0  0  0  0  0  0  0  0  0  0  0  0
    0.3359    2.6492    0.0000 O   0  0  0  0  0  0  0  0  0  0  0  0
   -3.8977    1.5024    0.0000 S   0  0  0  0  0  0  0  0  0  0  0  0
   -2.9314    2.6497    0.0000 O   0  0  0  0  0  0  0  0  0  0  0  0
   -4.8598    2.6532    0.0000 O   0  0  0  0  0  0  0  0  0  0  0  0
   -5.1981    0.7547    0.0000 N   0  0  0  0  0  0  0  0  0  0  0  0
   -3.8977   -1.5024    0.0000 Cl  0  0  0  0  0  0  0  0  0  0  0  0
  1  2  2  0  0  0  0 
  2  3  1  0  0  0  0 
  3  4  2  0  0  0  0 
  4  5  1  0  0  0  0 
  5  6  2  0  0  0  0 
  1  6  1  0  0  0  0 
  6  7  1  0  0  0  0 
  7  8  2  0  0  0  0 
  8  9  1  0  0  0  0 
  9 10  1  0  0  0  0 
  5 10  1  0  0  0  0 
 10 11  2  0  0  0  0 
 10 12  2  0  0  0  0 
  3 13  1  0  0  0  0 
 13 14  2  0  0  0  0 
 13 15  2  0  0  0  0 
 13 16  1  0  0  0  0 
  2 17  1  0  0  0  0 
M  CHG  1   7   1
M  END
> <Rank>
6

> <Priority_score>
0.594

> <Reaction_type>
dehydration of N-C bond

> <Parent_ID>
1

> <Parent_InChI>
InChI=1S/C7H8ClN3O4S2/c8-4-1-5-7(2-6(4)16(9,12)13)17(14,15)11-3-10-5/h1-2,10-11H,3H2,(H2,9,12,13)

> <Parent_SMILES>
C1([H])=C2C(=C([H])C(=C1Cl)S(=O)(=O)N([H])[H])S(=O)(=O)N([H])C([H])([H])N2[H]

$$$$
