
  CDK     1104240446

 29 31  0  0  0  0  0  0  0  0999 V2000
   -2.6738   -0.8179    0.0000 C   0  0  0  0  0  0  0  0  0  0  0  0
   -1.1730   -0.8181    0.0000 C   0  0  0  0  0  0  0  0  0  0  0  0
   -0.4219   -2.1175    0.0000 C   0  0  0  0  0  0  0  0  0  0  0  0
   -1.1717   -3.4167    0.0000 C   0  0  0  0  0  0  0  0  0  0  0  0
   -2.6726   -3.4164    0.0000 C   0  0  0  0  0  0  0  0  0  0  0  0
   -3.4236   -2.1170    0.0000 C   0  0  0  0  0  0  0  0  0  0  0  0
   -3.4224   -4.7156    0.0000 Br  0  0  0  0  0  0  0  0  0  0  0  0
   -0.4232    0.4810    0.0000 C   0  0  0  0  0  0  0  0  0  0  0  0
   -1.1732    1.7801    0.0000 C   0  0  0  0  0  0  0  0  0  0  0  0
   -0.4224    3.0796    0.0000 N   0  0  0  0  0  0  0  0  0  0  0  0
    1.0785    3.0801    0.0000 C   0  0  0  0  0  0  0  0  0  0  0  0
    1.8285    1.7810    0.0000 N   0  0  0  0  0  0  0  0  0  0  0  0
    1.0776    0.4815    0.0000 C   0  0  0  0  0  0  0  0  0  0  0  0
    1.8276   -0.8175    0.0000 N   0  0  0  0  0  0  0  0  0  0  0  0
    3.3276   -0.8175    0.0000 S   0  0  0  0  0  0  0  0  0  0  0  0
    4.7372   -0.3045    0.0000 O   0  0  0  0  0  0  0  0  0  0  0  0
    3.0672    0.6597    0.0000 O   0  0  0  0  0  0  0  0  0  0  0  0
    4.0776   -2.1166    0.0000 N   0  0  0  0  0  0  0  0  0  0  0  0
   -2.6732    1.7803    0.0000 O   0  0  0  0  0  0  0  0  0  0  0  0
   -3.4230    3.0795    0.0000 C   0  0  0  0  0  0  0  0  0  0  0  0
   -4.9230    3.0797    0.0000 C   0  0  0  0  0  0  0  0  0  0  0  0
   -5.6728    4.3789    0.0000 O   0  0  0  0  0  0  0  0  0  0  0  0
   -7.1728    4.3791    0.0000 C   0  0  0  0  0  0  0  0  0  0  0  0
   -7.9232    5.6789    0.0000 N   0  0  0  0  0  0  0  0  0  0  0  0
   -9.4240    5.6798    0.0000 C   0  0  0  0  0  0  0  0  0  0  0  0
  -10.1744    4.3810    0.0000 C   0  0  0  0  0  0  0  0  0  0  0  0
   -9.4240    3.0813    0.0000 C   0  0  0  0  0  0  0  0  0  0  0  0
   -7.9232    3.0803    0.0000 N   0  0  0  0  0  0  0  0  0  0  0  0
  -11.6744    4.3813    0.0000 Br  0  0  0  0  0  0  0  0  0  0  0  0
  1  2  2  0  0  0  0 
  2  3  1  0  0  0  0 
  3  4  2  0  0  0  0 
  4  5  1  0  0  0  0 
  5  6  2  0  0  0  0 
  1  6  1  0  0  0  0 
  5  7  1  0  0  0  0 
  2  8  1  0  0  0  0 
  8  9  2  0  0  0  0 
  9 10  1  0  0  0  0 
 10 11  2  0  0  0  0 
 11 12  1  0  0  0  0 
 12 13  2  0  0  0  0 
  8 13  1  0  0  0  0 
 13 14  1  0  0  0  0 
 14 15  1  0  0  0  0 
 15 16  2  0  0  0  0 
 15 17  2  0  0  0  0 
 15 18  1  0  0  0  0 
  9 19  1  0  0  0  0 
 19 20  1  0  0  0  0 
 20 21  1  0  0  0  0 
 21 22  1  0  0  0  0 
 22 23  1  0  0  0  0 
 23 24  2  0  0  0  0 
 24 25  1  0  0  0  0 
 25 26  2  0  0  0  0 
 26 27  1  0  0  0  0 
 27 28  2  0  0  0  0 
 23 28  1  0  0  0  0 
 26 29  1  0  0  0  0 
M  END
> <Rank>
1

> <Priority_score>
3.11

> <Reaction_type>
N-dealkylation

> <Parent_ID>
1

> <Parent_InChI>
InChI=1S/C19H20Br2N6O4S/c1-2-7-26-32(28,29)27-17-16(13-3-5-14(20)6-4-13)18(25-12-24-17)30-8-9-31-19-22-10-15(21)11-23-19/h3-6,10-12,26H,2,7-9H2,1H3,(H,24,25,27)

> <Parent_SMILES>
C([H])([H])([H])C([H])([H])C([H])([H])N([H])S(=O)(=O)N([H])C1=NC([H])=NC(=C1C2=C([H])C([H])=C(C([H])=C2[H])Br)OC([H])([H])C([H])([H])OC3=NC([H])=C(C([H])=N3)Br

$$$$

  CDK     1104240446

  4  3  0  0  0  0  0  0  0  0999 V2000
    0.0000    0.0000    0.0000 C   0  0  0  0  0  0  0  0  0  0  0  0
    1.2990   -0.7500    0.0000 C   0  0  0  0  0  0  0  0  0  0  0  0
    2.5981   -0.0000    0.0000 C   0  0  0  0  0  0  0  0  0  0  0  0
    3.8971   -0.7500    0.0000 O   0  0  0  0  0  0  0  0  0  0  0  0
  1  2  1  0  0  0  0 
  2  3  1  0  0  0  0 
  3  4  2  0  0  0  0 
M  END
> <Rank>
1

> <Priority_score>
3.11

> <Reaction_type>
N-dealkylation

> <Parent_ID>
1

> <Parent_InChI>
InChI=1S/C19H20Br2N6O4S/c1-2-7-26-32(28,29)27-17-16(13-3-5-14(20)6-4-13)18(25-12-24-17)30-8-9-31-19-22-10-15(21)11-23-19/h3-6,10-12,26H,2,7-9H2,1H3,(H,24,25,27)

> <Parent_SMILES>
C([H])([H])([H])C([H])([H])C([H])([H])N([H])S(=O)(=O)N([H])C1=NC([H])=NC(=C1C2=C([H])C([H])=C(C([H])=C2[H])Br)OC([H])([H])C([H])([H])OC3=NC([H])=C(C([H])=N3)Br

$$$$

  CDK     1104240446

 33 35  0  0  0  0  0  0  0  0999 V2000
    9.0932   -3.7518    0.0000 C   0  0  0  0  0  0  0  0  0  0  0  0
    7.7943   -3.0016    0.0000 C   0  0  0  0  0  0  0  0  0  0  0  0
    6.4951   -3.7514    0.0000 C   0  0  0  0  0  0  0  0  0  0  0  0
    5.1962   -3.0011    0.0000 N   0  0  0  0  0  0  0  0  0  0  0  0
    3.8971   -3.7509    0.0000 S   0  0  0  0  0  0  0  0  0  0  0  0
    2.9327   -4.8998    0.0000 O   0  0  0  0  0  0  0  0  0  0  0  0
    4.8611   -4.9002    0.0000 O   0  0  0  0  0  0  0  0  0  0  0  0
    2.5981   -3.0007    0.0000 N   0  0  0  0  0  0  0  0  0  0  0  0
    1.2990   -3.7505    0.0000 C   0  0  0  0  0  0  0  0  0  0  0  0
    1.2985   -5.2514    0.0000 N   0  0  0  0  0  0  0  0  0  0  0  0
   -0.0010   -6.0022    0.0000 C   0  0  0  0  0  0  0  0  0  0  0  0
   -1.3001   -5.2522    0.0000 N   0  0  0  0  0  0  0  0  0  0  0  0
   -1.2996   -3.7514    0.0000 C   0  0  0  0  0  0  0  0  0  0  0  0
   -0.0001   -3.0005    0.0000 C   0  0  0  0  0  0  0  0  0  0  0  0
   -0.0003   -1.5005    0.0000 C   0  0  0  0  0  0  0  0  0  0  0  0
   -1.3001   -0.7501    0.0000 C   0  0  0  0  0  0  0  0  0  0  0  0
   -1.3010    0.7507    0.0000 C   0  0  0  0  0  0  0  0  0  0  0  0
   -0.0022    1.5011    0.0000 C   0  0  0  0  0  0  0  0  0  0  0  0
    1.2975    0.7507    0.0000 C   0  0  0  0  0  0  0  0  0  0  0  0
    1.2985   -0.7501    0.0000 C   0  0  0  0  0  0  0  0  0  0  0  0
   -0.0025    3.0011    0.0000 Br  0  0  0  0  0  0  0  0  0  0  0  0
   -2.5986   -3.0014    0.0000 O   0  0  0  0  0  0  0  0  0  0  0  0
   -3.8977   -3.7514    0.0000 C   0  0  0  0  0  0  0  0  0  0  0  0
   -5.1967   -3.0014    0.0000 C   0  0  0  0  0  0  0  0  0  0  0  0
   -6.4957   -3.7514    0.0000 O   0  0  0  0  0  0  0  0  0  0  0  0
   -7.7948   -3.0014    0.0000 C   0  0  0  0  0  0  0  0  0  0  0  0
   -7.7950   -1.5005    0.0000 N   0  0  0  0  0  0  0  0  0  0  0  0
   -9.0944   -0.7495    0.0000 C   0  0  0  0  0  0  0  0  0  0  0  0
  -10.3936   -1.4993    0.0000 C   0  0  0  0  0  0  0  0  0  0  0  0
  -10.3933   -3.0001    0.0000 C   0  0  0  0  0  0  0  0  0  0  0  0
   -9.0939   -3.7511    0.0000 N   0  0  0  0  0  0  0  0  0  0  0  0
  -11.6926   -0.7493    0.0000 Br  0  0  0  0  0  0  0  0  0  0  0  0
    6.4949   -5.2514    0.0000 O   0  0  0  0  0  0  0  0  0  0  0  0
  1  2  1  0  0  0  0 
  2  3  1  0  0  0  0 
  3  4  1  0  0  0  0 
  4  5  1  0  0  0  0 
  5  6  2  0  0  0  0 
  5  7  2  0  0  0  0 
  5  8  1  0  0  0  0 
  8  9  1  0  0  0  0 
  9 10  2  0  0  0  0 
 10 11  1  0  0  0  0 
 11 12  2  0  0  0  0 
 12 13  1  0  0  0  0 
 13 14  2  0  0  0  0 
  9 14  1  0  0  0  0 
 14 15  1  0  0  0  0 
 15 16  2  0  0  0  0 
 16 17  1  0  0  0  0 
 17 18  2  0  0  0  0 
 18 19  1  0  0  0  0 
 19 20  2  0  0  0  0 
 15 20  1  0  0  0  0 
 18 21  1  0  0  0  0 
 13 22  1  0  0  0  0 
 22 23  1  0  0  0  0 
 23 24  1  0  0  0  0 
 24 25  1  0  0  0  0 
 25 26  1  0  0  0  0 
 26 27  2  0  0  0  0 
 27 28  1  0  0  0  0 
 28 29  2  0  0  0  0 
 29 30  1  0  0  0  0 
 30 31  2  0  0  0  0 
 26 31  1  0  0  0  0 
 29 32  1  0  0  0  0 
  3 33  1  0  0  0  0 
M  END
> <Rank>
1

> <Priority_score>
3.11

> <Reaction_type>
aliphatic hydroxylation

> <Parent_ID>
1

> <Parent_InChI>
InChI=1S/C19H20Br2N6O4S/c1-2-7-26-32(28,29)27-17-16(13-3-5-14(20)6-4-13)18(25-12-24-17)30-8-9-31-19-22-10-15(21)11-23-19/h3-6,10-12,26H,2,7-9H2,1H3,(H,24,25,27)

> <Parent_SMILES>
C([H])([H])([H])C([H])([H])C([H])([H])N([H])S(=O)(=O)N([H])C1=NC([H])=NC(=C1C2=C([H])C([H])=C(C([H])=C2[H])Br)OC([H])([H])C([H])([H])OC3=NC([H])=C(C([H])=N3)Br

$$$$

  CDK     1104240446

 33 35  0  0  0  0  0  0  0  0999 V2000
    9.0932   -3.7518    0.0000 C   0  0  0  0  0  0  0  0  0  0  0  0
    7.7943   -3.0016    0.0000 C   0  0  0  0  0  0  0  0  0  0  0  0
    6.4951   -3.7514    0.0000 C   0  0  0  0  0  0  0  0  0  0  0  0
    5.1962   -3.0011    0.0000 N   0  0  0  0  0  0  0  0  0  0  0  0
    5.1965   -1.5011    0.0000 O   0  0  0  0  0  0  0  0  0  0  0  0
    3.8971   -3.7509    0.0000 S   0  0  0  0  0  0  0  0  0  0  0  0
    2.9327   -4.8998    0.0000 O   0  0  0  0  0  0  0  0  0  0  0  0
    4.8611   -4.9002    0.0000 O   0  0  0  0  0  0  0  0  0  0  0  0
    2.5981   -3.0007    0.0000 N   0  0  0  0  0  0  0  0  0  0  0  0
    1.2990   -3.7505    0.0000 C   0  0  0  0  0  0  0  0  0  0  0  0
    1.2985   -5.2514    0.0000 N   0  0  0  0  0  0  0  0  0  0  0  0
   -0.0010   -6.0022    0.0000 C   0  0  0  0  0  0  0  0  0  0  0  0
   -1.3001   -5.2522    0.0000 N   0  0  0  0  0  0  0  0  0  0  0  0
   -1.2996   -3.7514    0.0000 C   0  0  0  0  0  0  0  0  0  0  0  0
   -0.0001   -3.0005    0.0000 C   0  0  0  0  0  0  0  0  0  0  0  0
   -0.0003   -1.5005    0.0000 C   0  0  0  0  0  0  0  0  0  0  0  0
   -1.3001   -0.7501    0.0000 C   0  0  0  0  0  0  0  0  0  0  0  0
   -1.3010    0.7507    0.0000 C   0  0  0  0  0  0  0  0  0  0  0  0
   -0.0022    1.5011    0.0000 C   0  0  0  0  0  0  0  0  0  0  0  0
    1.2975    0.7507    0.0000 C   0  0  0  0  0  0  0  0  0  0  0  0
    1.2985   -0.7501    0.0000 C   0  0  0  0  0  0  0  0  0  0  0  0
   -0.0025    3.0011    0.0000 Br  0  0  0  0  0  0  0  0  0  0  0  0
   -2.5986   -3.0014    0.0000 O   0  0  0  0  0  0  0  0  0  0  0  0
   -3.8977   -3.7514    0.0000 C   0  0  0  0  0  0  0  0  0  0  0  0
   -5.1967   -3.0014    0.0000 C   0  0  0  0  0  0  0  0  0  0  0  0
   -6.4957   -3.7514    0.0000 O   0  0  0  0  0  0  0  0  0  0  0  0
   -7.7948   -3.0014    0.0000 C   0  0  0  0  0  0  0  0  0  0  0  0
   -7.7950   -1.5005    0.0000 N   0  0  0  0  0  0  0  0  0  0  0  0
   -9.0944   -0.7495    0.0000 C   0  0  0  0  0  0  0  0  0  0  0  0
  -10.3936   -1.4993    0.0000 C   0  0  0  0  0  0  0  0  0  0  0  0
  -10.3933   -3.0001    0.0000 C   0  0  0  0  0  0  0  0  0  0  0  0
   -9.0939   -3.7511    0.0000 N   0  0  0  0  0  0  0  0  0  0  0  0
  -11.6926   -0.7493    0.0000 Br  0  0  0  0  0  0  0  0  0  0  0  0
  1  2  1  0  0  0  0 
  2  3  1  0  0  0  0 
  3  4  1  0  0  0  0 
  4  5  1  0  0  0  0 
  4  6  1  0  0  0  0 
  6  7  2  0  0  0  0 
  6  8  2  0  0  0  0 
  6  9  1  0  0  0  0 
  9 10  1  0  0  0  0 
 10 11  2  0  0  0  0 
 11 12  1  0  0  0  0 
 12 13  2  0  0  0  0 
 13 14  1  0  0  0  0 
 14 15  2  0  0  0  0 
 10 15  1  0  0  0  0 
 15 16  1  0  0  0  0 
 16 17  2  0  0  0  0 
 17 18  1  0  0  0  0 
 18 19  2  0  0  0  0 
 19 20  1  0  0  0  0 
 20 21  2  0  0  0  0 
 16 21  1  0  0  0  0 
 19 22  1  0  0  0  0 
 14 23  1  0  0  0  0 
 23 24  1  0  0  0  0 
 24 25  1  0  0  0  0 
 25 26  1  0  0  0  0 
 26 27  1  0  0  0  0 
 27 28  2  0  0  0  0 
 28 29  1  0  0  0  0 
 29 30  2  0  0  0  0 
 30 31  1  0  0  0  0 
 31 32  2  0  0  0  0 
 27 32  1  0  0  0  0 
 30 33  1  0  0  0  0 
M  END
> <Rank>
1

> <Priority_score>
3.11

> <Reaction_type>
amine hydroxylation

> <Parent_ID>
1

> <Parent_InChI>
InChI=1S/C19H20Br2N6O4S/c1-2-7-26-32(28,29)27-17-16(13-3-5-14(20)6-4-13)18(25-12-24-17)30-8-9-31-19-22-10-15(21)11-23-19/h3-6,10-12,26H,2,7-9H2,1H3,(H,24,25,27)

> <Parent_SMILES>
C([H])([H])([H])C([H])([H])C([H])([H])N([H])S(=O)(=O)N([H])C1=NC([H])=NC(=C1C2=C([H])C([H])=C(C([H])=C2[H])Br)OC([H])([H])C([H])([H])OC3=NC([H])=C(C([H])=N3)Br

$$$$

  CDK     1104240446

 32 34  0  0  0  0  0  0  0  0999 V2000
    9.0932   -3.7518    0.0000 C   0  0  0  0  0  0  0  0  0  0  0  0
    7.7943   -3.0016    0.0000 C   0  0  0  0  0  0  0  0  0  0  0  0
    6.4951   -3.7514    0.0000 C   0  0  0  0  0  0  0  0  0  0  0  0
    5.1962   -3.0011    0.0000 N   0  0  0  0  0  0  0  0  0  0  0  0
    3.8971   -3.7509    0.0000 S   0  0  0  0  0  0  0  0  0  0  0  0
    2.9327   -4.8998    0.0000 O   0  0  0  0  0  0  0  0  0  0  0  0
    4.8611   -4.9002    0.0000 O   0  0  0  0  0  0  0  0  0  0  0  0
    2.5981   -3.0007    0.0000 N   0  0  0  0  0  0  0  0  0  0  0  0
    1.2990   -3.7505    0.0000 C   0  0  0  0  0  0  0  0  0  0  0  0
    1.2985   -5.2514    0.0000 N   0  0  0  0  0  0  0  0  0  0  0  0
   -0.0010   -6.0022    0.0000 C   0  0  0  0  0  0  0  0  0  0  0  0
   -1.3001   -5.2522    0.0000 N   0  0  0  0  0  0  0  0  0  0  0  0
   -1.2996   -3.7514    0.0000 C   0  0  0  0  0  0  0  0  0  0  0  0
   -0.0001   -3.0005    0.0000 C   0  0  0  0  0  0  0  0  0  0  0  0
   -0.0003   -1.5005    0.0000 C   0  0  0  0  0  0  0  0  0  0  0  0
   -1.3001   -0.7501    0.0000 C   0  0  0  0  0  0  0  0  0  0  0  0
   -1.3010    0.7507    0.0000 C   0  0  0  0  0  0  0  0  0  0  0  0
   -0.0022    1.5011    0.0000 C   0  0  0  0  0  0  0  0  0  0  0  0
    1.2975    0.7507    0.0000 C   0  0  0  0  0  0  0  0  0  0  0  0
    1.2985   -0.7501    0.0000 C   0  0  0  0  0  0  0  0  0  0  0  0
   -0.0025    3.0011    0.0000 Br  0  0  0  0  0  0  0  0  0  0  0  0
   -2.5986   -3.0014    0.0000 O   0  0  0  0  0  0  0  0  0  0  0  0
   -3.8977   -3.7514    0.0000 C   0  0  0  0  0  0  0  0  0  0  0  0
   -5.1967   -3.0014    0.0000 C   0  0  0  0  0  0  0  0  0  0  0  0
   -6.4957   -3.7514    0.0000 O   0  0  0  0  0  0  0  0  0  0  0  0
   -7.7948   -3.0014    0.0000 C   0  0  0  0  0  0  0  0  0  0  0  0
   -7.7950   -1.5005    0.0000 N   0  0  0  0  0  0  0  0  0  0  0  0
   -9.0944   -0.7495    0.0000 C   0  0  0  0  0  0  0  0  0  0  0  0
  -10.3936   -1.4993    0.0000 C   0  0  0  0  0  0  0  0  0  0  0  0
  -10.3933   -3.0001    0.0000 C   0  0  0  0  0  0  0  0  0  0  0  0
   -9.0939   -3.7511    0.0000 N   0  0  0  0  0  0  0  0  0  0  0  0
  -11.6926   -0.7493    0.0000 Br  0  0  0  0  0  0  0  0  0  0  0  0
  1  2  1  0  0  0  0 
  2  3  1  0  0  0  0 
  3  4  2  0  0  0  0 
  4  5  1  4  0  0  0 
  5  6  2  0  0  0  0 
  5  7  2  0  0  0  0 
  5  8  1  0  0  0  0 
  8  9  1  0  0  0  0 
  9 10  2  0  0  0  0 
 10 11  1  0  0  0  0 
 11 12  2  0  0  0  0 
 12 13  1  0  0  0  0 
 13 14  2  0  0  0  0 
  9 14  1  0  0  0  0 
 14 15  1  0  0  0  0 
 15 16  2  0  0  0  0 
 16 17  1  0  0  0  0 
 17 18  2  0  0  0  0 
 18 19  1  0  0  0  0 
 19 20  2  0  0  0  0 
 15 20  1  0  0  0  0 
 18 21  1  0  0  0  0 
 13 22  1  0  0  0  0 
 22 23  1  0  0  0  0 
 23 24  1  0  0  0  0 
 24 25  1  0  0  0  0 
 25 26  1  0  0  0  0 
 26 27  2  0  0  0  0 
 27 28  1  0  0  0  0 
 28 29  2  0  0  0  0 
 29 30  1  0  0  0  0 
 30 31  2  0  0  0  0 
 26 31  1  0  0  0  0 
 29 32  1  0  0  0  0 
M  CHG  1   4   1
M  END
> <Rank>
5

> <Priority_score>
0.622

> <Reaction_type>
dehydration of N-C bond

> <Parent_ID>
1

> <Parent_InChI>
InChI=1S/C19H20Br2N6O4S/c1-2-7-26-32(28,29)27-17-16(13-3-5-14(20)6-4-13)18(25-12-24-17)30-8-9-31-19-22-10-15(21)11-23-19/h3-6,10-12,26H,2,7-9H2,1H3,(H,24,25,27)

> <Parent_SMILES>
C([H])([H])([H])C([H])([H])C([H])([H])N([H])S(=O)(=O)N([H])C1=NC([H])=NC(=C1C2=C([H])C([H])=C(C([H])=C2[H])Br)OC([H])([H])C([H])([H])OC3=NC([H])=C(C([H])=N3)Br

$$$$

  CDK     1104240446

 32 34  0  0  0  0  0  0  0  0999 V2000
    9.0932   -3.7518    0.0000 C   0  0  0  0  0  0  0  0  0  0  0  0
    7.7943   -3.0016    0.0000 C   0  0  0  0  0  0  0  0  0  0  0  0
    6.4951   -3.7514    0.0000 C   0  0  0  0  0  0  0  0  0  0  0  0
    5.1962   -3.0011    0.0000 N   0  0  0  0  0  0  0  0  0  0  0  0
    3.8971   -3.7509    0.0000 S   0  0  0  0  0  0  0  0  0  0  0  0
    2.9327   -4.8998    0.0000 O   0  0  0  0  0  0  0  0  0  0  0  0
    4.8611   -4.9002    0.0000 O   0  0  0  0  0  0  0  0  0  0  0  0
    2.5981   -3.0007    0.0000 N   0  0  0  0  0  0  0  0  0  0  0  0
    1.2990   -3.7505    0.0000 C   0  0  0  0  0  0  0  0  0  0  0  0
    1.2985   -5.2514    0.0000 N   0  0  0  0  0  0  0  0  0  0  0  0
   -0.0010   -6.0022    0.0000 C   0  0  0  0  0  0  0  0  0  0  0  0
   -1.3001   -5.2522    0.0000 N   0  0  0  0  0  0  0  0  0  0  0  0
   -1.2996   -3.7514    0.0000 C   0  0  0  0  0  0  0  0  0  0  0  0
   -0.0001   -3.0005    0.0000 C   0  0  0  0  0  0  0  0  0  0  0  0
   -0.0003   -1.5005    0.0000 C   0  0  0  0  0  0  0  0  0  0  0  0
   -1.3001   -0.7501    0.0000 C   0  0  0  0  0  0  0  0  0  0  0  0
   -1.3010    0.7507    0.0000 C   0  0  0  0  0  0  0  0  0  0  0  0
   -0.0022    1.5011    0.0000 C   0  0  0  0  0  0  0  0  0  0  0  0
    1.2975    0.7507    0.0000 C   0  0  0  0  0  0  0  0  0  0  0  0
    1.2985   -0.7501    0.0000 C   0  0  0  0  0  0  0  0  0  0  0  0
   -0.0025    3.0011    0.0000 Br  0  0  0  0  0  0  0  0  0  0  0  0
   -2.5986   -3.0014    0.0000 O   0  0  0  0  0  0  0  0  0  0  0  0
   -3.8977   -3.7514    0.0000 C   0  0  0  0  0  0  0  0  0  0  0  0
   -5.1967   -3.0014    0.0000 C   0  0  0  0  0  0  0  0  0  0  0  0
   -6.4957   -3.7514    0.0000 O   0  0  0  0  0  0  0  0  0  0  0  0
   -7.7948   -3.0014    0.0000 C   0  0  0  0  0  0  0  0  0  0  0  0
   -7.7950   -1.5005    0.0000 N   0  0  0  0  0  0  0  0  0  0  0  0
   -9.0944   -0.7495    0.0000 C   0  0  0  0  0  0  0  0  0  0  0  0
  -10.3936   -1.4993    0.0000 C   0  0  0  0  0  0  0  0  0  0  0  0
  -10.3933   -3.0001    0.0000 C   0  0  0  0  0  0  0  0  0  0  0  0
   -9.0939   -3.7511    0.0000 N   0  0  0  0  0  0  0  0  0  0  0  0
  -11.6926   -0.7493    0.0000 Br  0  0  0  0  0  0  0  0  0  0  0  0
  1  2  1  4  0  0  0 
  2  3  2  0  0  0  0 
  3  4  1  0  0  0  0 
  4  5  1  0  0  0  0 
  5  6  2  0  0  0  0 
  5  7  2  0  0  0  0 
  5  8  1  0  0  0  0 
  8  9  1  0  0  0  0 
  9 10  2  0  0  0  0 
 10 11  1  0  0  0  0 
 11 12  2  0  0  0  0 
 12 13  1  0  0  0  0 
 13 14  2  0  0  0  0 
  9 14  1  0  0  0  0 
 14 15  1  0  0  0  0 
 15 16  2  0  0  0  0 
 16 17  1  0  0  0  0 
 17 18  2  0  0  0  0 
 18 19  1  0  0  0  0 
 19 20  2  0  0  0  0 
 15 20  1  0  0  0  0 
 18 21  1  0  0  0  0 
 13 22  1  0  0  0  0 
 22 23  1  0  0  0  0 
 23 24  1  0  0  0  0 
 24 25  1  0  0  0  0 
 25 26  1  0  0  0  0 
 26 27  2  0  0  0  0 
 27 28  1  0  0  0  0 
 28 29  2  0  0  0  0 
 29 30  1  0  0  0  0 
 30 31  2  0  0  0  0 
 26 31  1  0  0  0  0 
 29 32  1  0  0  0  0 
M  END
> <Rank>
5

> <Priority_score>
0.622

> <Reaction_type>
alkyl dehydrogenation

> <Parent_ID>
1

> <Parent_InChI>
InChI=1S/C19H20Br2N6O4S/c1-2-7-26-32(28,29)27-17-16(13-3-5-14(20)6-4-13)18(25-12-24-17)30-8-9-31-19-22-10-15(21)11-23-19/h3-6,10-12,26H,2,7-9H2,1H3,(H,24,25,27)

> <Parent_SMILES>
C([H])([H])([H])C([H])([H])C([H])([H])N([H])S(=O)(=O)N([H])C1=NC([H])=NC(=C1C2=C([H])C([H])=C(C([H])=C2[H])Br)OC([H])([H])C([H])([H])OC3=NC([H])=C(C([H])=N3)Br

$$$$

  CDK     1104240446

 32 34  0  0  0  0  0  0  0  0999 V2000
    9.0932   -3.7518    0.0000 C   0  0  0  0  0  0  0  0  0  0  0  0
    7.7943   -3.0016    0.0000 C   0  0  0  0  0  0  0  0  0  0  0  0
    6.4951   -3.7514    0.0000 C   0  0  0  0  0  0  0  0  0  0  0  0
    5.1962   -3.0011    0.0000 N   0  0  0  0  0  0  0  0  0  0  0  0
    3.8971   -3.7509    0.0000 S   0  0  0  0  0  0  0  0  0  0  0  0
    2.9327   -4.8998    0.0000 O   0  0  0  0  0  0  0  0  0  0  0  0
    4.8611   -4.9002    0.0000 O   0  0  0  0  0  0  0  0  0  0  0  0
    2.5981   -3.0007    0.0000 N   0  0  0  0  0  0  0  0  0  0  0  0
    1.2990   -3.7505    0.0000 C   0  0  0  0  0  0  0  0  0  0  0  0
    1.2985   -5.2514    0.0000 N   0  0  0  0  0  0  0  0  0  0  0  0
   -0.0010   -6.0022    0.0000 C   0  0  0  0  0  0  0  0  0  0  0  0
   -1.3001   -5.2522    0.0000 N   0  0  0  0  0  0  0  0  0  0  0  0
   -1.2996   -3.7514    0.0000 C   0  0  0  0  0  0  0  0  0  0  0  0
   -0.0001   -3.0005    0.0000 C   0  0  0  0  0  0  0  0  0  0  0  0
   -0.0003   -1.5005    0.0000 C   0  0  0  0  0  0  0  0  0  0  0  0
   -1.3001   -0.7501    0.0000 C   0  0  0  0  0  0  0  0  0  0  0  0
   -1.3010    0.7507    0.0000 C   0  0  0  0  0  0  0  0  0  0  0  0
   -0.0022    1.5011    0.0000 C   0  0  0  0  0  0  0  0  0  0  0  0
    1.2975    0.7507    0.0000 C   0  0  0  0  0  0  0  0  0  0  0  0
    1.2985   -0.7501    0.0000 C   0  0  0  0  0  0  0  0  0  0  0  0
   -0.0025    3.0011    0.0000 Br  0  0  0  0  0  0  0  0  0  0  0  0
   -2.5986   -3.0014    0.0000 O   0  0  0  0  0  0  0  0  0  0  0  0
   -3.8977   -3.7514    0.0000 C   0  0  0  0  0  0  0  0  0  0  0  0
   -5.1967   -3.0014    0.0000 C   0  0  0  0  0  0  0  0  0  0  0  0
   -6.4957   -3.7514    0.0000 O   0  0  0  0  0  0  0  0  0  0  0  0
   -7.7948   -3.0014    0.0000 C   0  0  0  0  0  0  0  0  0  0  0  0
   -7.7950   -1.5005    0.0000 N   0  0  0  0  0  0  0  0  0  0  0  0
   -9.0944   -0.7495    0.0000 C   0  0  0  0  0  0  0  0  0  0  0  0
  -10.3936   -1.4993    0.0000 C   0  0  0  0  0  0  0  0  0  0  0  0
  -10.3933   -3.0001    0.0000 C   0  0  0  0  0  0  0  0  0  0  0  0
   -9.0939   -3.7511    0.0000 N   0  0  0  0  0  0  0  0  0  0  0  0
  -11.6926   -0.7493    0.0000 Br  0  0  0  0  0  0  0  0  0  0  0  0
  1  2  1  0  0  0  0 
  2  3  1  0  0  0  0 
  3  4  2  0  0  0  0 
  4  5  1  4  0  0  0 
  5  6  2  0  0  0  0 
  5  7  2  0  0  0  0 
  5  8  1  0  0  0  0 
  8  9  1  0  0  0  0 
  9 10  2  0  0  0  0 
 10 11  1  0  0  0  0 
 11 12  2  0  0  0  0 
 12 13  1  0  0  0  0 
 13 14  2  0  0  0  0 
  9 14  1  0  0  0  0 
 14 15  1  0  0  0  0 
 15 16  2  0  0  0  0 
 16 17  1  0  0  0  0 
 17 18  2  0  0  0  0 
 18 19  1  0  0  0  0 
 19 20  2  0  0  0  0 
 15 20  1  0  0  0  0 
 18 21  1  0  0  0  0 
 13 22  1  0  0  0  0 
 22 23  1  0  0  0  0 
 23 24  1  0  0  0  0 
 24 25  1  0  0  0  0 
 25 26  1  0  0  0  0 
 26 27  2  0  0  0  0 
 27 28  1  0  0  0  0 
 28 29  2  0  0  0  0 
 29 30  1  0  0  0  0 
 30 31  2  0  0  0  0 
 26 31  1  0  0  0  0 
 29 32  1  0  0  0  0 
M  END
> <Rank>
5

> <Priority_score>
0.622

> <Reaction_type>
dehydration of N-C bond

> <Parent_ID>
1

> <Parent_InChI>
InChI=1S/C19H20Br2N6O4S/c1-2-7-26-32(28,29)27-17-16(13-3-5-14(20)6-4-13)18(25-12-24-17)30-8-9-31-19-22-10-15(21)11-23-19/h3-6,10-12,26H,2,7-9H2,1H3,(H,24,25,27)

> <Parent_SMILES>
C([H])([H])([H])C([H])([H])C([H])([H])N([H])S(=O)(=O)N([H])C1=NC([H])=NC(=C1C2=C([H])C([H])=C(C([H])=C2[H])Br)OC([H])([H])C([H])([H])OC3=NC([H])=C(C([H])=N3)Br

$$$$
