
  CDK     1104240417

 11 11  0  0  0  0  0  0  0  0999 V2000
   -3.2483    2.6365    0.0000 C   0  0  0  0  0  0  0  0  0  0  0  0
   -1.9529    1.8802    0.0000 C   0  0  1  0  0  0  0  0  0  0  0  0
   -0.6502    2.6238    0.0000 C   0  0  0  0  0  0  0  0  0  0  0  0
    0.6451    1.8674    0.0000 C   0  0  0  0  0  0  0  0  0  0  0  0
    1.9442    2.6174    0.0000 C   0  0  0  0  0  0  0  0  0  0  0  0
    3.2287    1.8925    0.0000 C   0  0  0  0  0  0  0  0  0  0  0  0
    3.2542    0.3484    0.0000 C   0  0  0  0  0  0  0  0  0  0  0  0
    1.9551   -0.4016    0.0000 C   0  0  0  0  0  0  0  0  0  0  0  0
    0.6306    0.3925    0.0000 C   0  0  0  0  0  0  0  0  0  0  0  0
    4.5593   -0.3909    0.0000 O   0  0  0  0  0  0  0  0  0  0  0  0
   -1.9603    0.3802    0.0000 N   0  0  0  0  0  0  0  0  0  0  0  0
  1  2  1  0  0  0  0 
  2  3  1  0  0  0  0 
  3  4  1  0  0  0  0 
  4  5  2  0  0  0  0 
  5  6  1  0  0  0  0 
  6  7  2  0  0  0  0 
  7  8  1  0  0  0  0 
  8  9  2  0  0  0  0 
  4  9  1  0  0  0  0 
  7 10  1  0  0  0  0 
  2 11  1  1  0  0  0 
M  END
> <Rank>
1

> <Priority_score>
2.56

> <Reaction_type>
aromatic hydroxylation

> <Parent_ID>
1

> <Parent_InChI>
InChI=1S/C9H13N/c1-8(10)7-9-5-3-2-4-6-9/h2-6,8H,7,10H2,1H3/t8-/m0/s1

> <Parent_SMILES>
C([H])([H])([H])[C@@]([H])(C([H])([H])C1=C([H])C([H])=C([H])C([H])=C1[H])N([H])[H]

$$$$

  CDK     1104240417

 11 11  0  0  0  0  0  0  0  0999 V2000
   -0.6523   -4.4991    0.0000 C   0  0  0  0  0  0  0  0  0  0  0  0
   -0.6521   -2.9991    0.0000 C   0  0  1  0  0  0  0  0  0  0  0  0
    0.6471   -2.2493    0.0000 C   0  0  0  0  0  0  0  0  0  0  0  0
    0.6473   -0.7493    0.0000 C   0  0  0  0  0  0  0  0  0  0  0  0
   -0.6522    0.0015    0.0000 C   0  0  0  0  0  0  0  0  0  0  0  0
   -0.6477    1.4937    0.0000 C   0  0  0  0  0  0  0  0  0  0  0  0
    0.6514    2.2437    0.0000 C   0  0  0  0  0  0  0  0  0  0  0  0
    1.9459    1.5015    0.0000 C   0  0  0  0  0  0  0  0  0  0  0  0
    1.9464    0.0007    0.0000 C   0  0  0  0  0  0  0  0  0  0  0  0
    3.2437    2.2537    0.0000 O   0  0  0  0  0  0  0  0  0  0  0  0
   -1.9510   -2.2489    0.0000 N   0  0  0  0  0  0  0  0  0  0  0  0
  1  2  1  0  0  0  0 
  2  3  1  0  0  0  0 
  3  4  1  0  0  0  0 
  4  5  2  0  0  0  0 
  5  6  1  0  0  0  0 
  6  7  2  0  0  0  0 
  7  8  1  0  0  0  0 
  8  9  2  0  0  0  0 
  4  9  1  0  0  0  0 
  8 10  1  0  0  0  0 
  2 11  1  6  0  0  0 
M  END
> <Rank>
2

> <Priority_score>
1.55

> <Reaction_type>
aromatic hydroxylation

> <Parent_ID>
1

> <Parent_InChI>
InChI=1S/C9H13N/c1-8(10)7-9-5-3-2-4-6-9/h2-6,8H,7,10H2,1H3/t8-/m0/s1

> <Parent_SMILES>
C([H])([H])([H])[C@@]([H])(C([H])([H])C1=C([H])C([H])=C([H])C([H])=C1[H])N([H])[H]

$$$$
