
  CDK     1104240513

 27 28  0  0  0  0  0  0  0  0999 V2000
   -6.2062  -12.0000    0.0000 C   0  0  0  0  0  0  0  0  0  0  0  0
   -6.2062  -10.5000    0.0000 C   0  0  0  0  0  0  0  0  0  0  0  0
   -4.9071   -9.7500    0.0000 C   0  0  0  0  0  0  0  0  0  0  0  0
   -4.9071   -8.2500    0.0000 C   0  0  0  0  0  0  0  0  0  0  0  0
   -3.6081   -7.5000    0.0000 N   0  0  0  0  0  0  0  0  0  0  0  0
   -2.3090   -8.2500    0.0000 C   0  0  0  0  0  0  0  0  0  0  0  0
   -2.3090   -9.7500    0.0000 C   0  0  0  0  0  0  0  0  0  0  0  0
   -3.6081  -10.5000    0.0000 C   0  0  0  0  0  0  0  0  0  0  0  0
   -3.6081  -12.0000    0.0000 C   0  0  0  0  0  0  0  0  0  0  0  0
   -3.6081   -6.0000    0.0000 S   0  0  0  0  0  0  0  0  0  0  0  0
   -2.3090   -5.2500    0.0000 N   0  0  0  0  0  0  0  0  0  0  0  0
   -1.0100   -6.0000    0.0000 C   0  0  0  0  0  0  0  0  0  0  0  0
   -2.3090   -3.7500    0.0000 C   0  0  0  0  0  0  0  0  0  0  0  0
   -3.6081   -3.0000    0.0000 O   0  0  0  0  0  0  0  0  0  0  0  0
   -1.0100   -3.0000    0.0000 O   0  0  0  0  0  0  0  0  0  0  0  0
   -1.0100   -1.5000    0.0000 C   0  0  0  0  0  0  0  0  0  0  0  0
    0.2900   -0.7500    0.0000 C   0  0  0  0  0  0  0  0  0  0  0  0
    0.2900    0.7500    0.0000 C   0  0  0  0  0  0  0  0  0  0  0  0
   -1.0100    1.5000    0.0000 C   0  0  0  0  0  0  0  0  0  0  0  0
   -2.3100    0.7500    0.0000 C   0  0  0  0  0  0  0  0  0  0  0  0
   -2.3100   -0.7500    0.0000 C   0  0  0  0  0  0  0  0  0  0  0  0
    1.7200    1.2100    0.0000 C   0  0  0  0  0  0  0  0  0  0  0  0
    2.6000    0.0000    0.0000 C   0  0  0  0  0  0  0  0  0  0  0  0
    3.7146   -1.0039    0.0000 C   0  0  0  0  0  0  0  0  0  0  0  0
    3.7146    1.0039    0.0000 C   0  0  0  0  0  0  0  0  0  0  0  0
    1.7200   -1.2100    0.0000 O   0  0  0  0  0  0  0  0  0  0  0  0
    2.1853    2.6360    0.0000 O   0  0  0  0  0  0  0  0  0  0  0  0
  1  2  1  0  0  0  0 
  2  3  1  0  0  0  0 
  3  4  1  0  0  0  0 
  4  5  1  0  0  0  0 
  5  6  1  0  0  0  0 
  6  7  1  0  0  0  0 
  7  8  1  0  0  0  0 
  8  9  1  0  0  0  0 
  5 10  1  0  0  0  0 
 10 11  1  0  0  0  0 
 11 12  1  0  0  0  0 
 11 13  1  0  0  0  0 
 13 14  2  0  0  0  0 
 13 15  1  0  0  0  0 
 15 16  1  0  0  0  0 
 16 17  2  0  0  0  0 
 17 18  1  0  0  0  0 
 18 19  2  0  0  0  0 
 19 20  1  0  0  0  0 
 20 21  2  0  0  0  0 
 16 21  1  0  0  0  0 
 18 22  1  0  0  0  0 
 22 23  1  0  0  0  0 
 23 24  1  0  0  0  0 
 23 25  1  0  0  0  0 
 23 26  1  0  0  0  0 
 17 26  1  0  0  0  0 
 22 27  1  0  0  0  0 
M  END
> <Rank>
1

> <Priority_score>
2.2333333333333334

> <Reaction_type>
aliphatic hydroxylation

> <Parent_ID>
1

> <Parent_InChI>
InChI=1S/C20H32N2O3S/c1-6-8-13-22(14-9-7-2)26-21(5)19(23)24-17-12-10-11-16-15-20(3,4)25-18(16)17/h10-12H,6-9,13-15H2,1-5H3

> <Parent_SMILES>
C([H])([H])([H])C([H])([H])C([H])([H])C([H])([H])N(C([H])([H])C([H])([H])C([H])([H])C([H])([H])[H])SN(C([H])([H])[H])C(=O)OC1=C2C(=C([H])C([H])=C1[H])C([H])([H])C(C([H])([H])[H])(C([H])([H])[H])O2

$$$$

  CDK     1104240513

  5  4  0  0  0  0  0  0  0  0999 V2000
    0.0000    0.0000    0.0000 C   0  0  0  0  0  0  0  0  0  0  0  0
    1.2990   -0.7500    0.0000 C   0  0  0  0  0  0  0  0  0  0  0  0
    2.5981   -0.0000    0.0000 C   0  0  0  0  0  0  0  0  0  0  0  0
    3.8971   -0.7500    0.0000 C   0  0  0  0  0  0  0  0  0  0  0  0
    5.1962   -0.0000    0.0000 O   0  0  0  0  0  0  0  0  0  0  0  0
  1  2  1  0  0  0  0 
  2  3  1  0  0  0  0 
  3  4  1  0  0  0  0 
  4  5  2  0  0  0  0 
M  END
> <Rank>
2

> <Priority_score>
1.6600000000000001

> <Reaction_type>
N-dealkylation

> <Parent_ID>
1

> <Parent_InChI>
InChI=1S/C20H32N2O3S/c1-6-8-13-22(14-9-7-2)26-21(5)19(23)24-17-12-10-11-16-15-20(3,4)25-18(16)17/h10-12H,6-9,13-15H2,1-5H3

> <Parent_SMILES>
C([H])([H])([H])C([H])([H])C([H])([H])C([H])([H])N(C([H])([H])C([H])([H])C([H])([H])C([H])([H])[H])SN(C([H])([H])[H])C(=O)OC1=C2C(=C([H])C([H])=C1[H])C([H])([H])C(C([H])([H])[H])(C([H])([H])[H])O2

$$$$

  CDK     1104240513

 22 23  0  0  0  0  0  0  0  0999 V2000
    6.7662   11.7500    0.0000 C   0  0  0  0  0  0  0  0  0  0  0  0
    6.7662   10.2500    0.0000 C   0  0  0  0  0  0  0  0  0  0  0  0
    5.4671    9.5000    0.0000 C   0  0  0  0  0  0  0  0  0  0  0  0
    5.4671    8.0000    0.0000 C   0  0  0  0  0  0  0  0  0  0  0  0
    4.1681    7.2500    0.0000 N   0  0  0  0  0  0  0  0  0  0  0  0
    4.1681    5.7500    0.0000 S   0  0  0  0  0  0  0  0  0  0  0  0
    2.8690    5.0000    0.0000 N   0  0  0  0  0  0  0  0  0  0  0  0
    1.5700    5.7500    0.0000 C   0  0  0  0  0  0  0  0  0  0  0  0
    2.8690    3.5000    0.0000 C   0  0  0  0  0  0  0  0  0  0  0  0
    4.1681    2.7500    0.0000 O   0  0  0  0  0  0  0  0  0  0  0  0
    1.5700    2.7500    0.0000 O   0  0  0  0  0  0  0  0  0  0  0  0
    1.5700    1.2500    0.0000 C   0  0  0  0  0  0  0  0  0  0  0  0
    0.2700    0.5000    0.0000 C   0  0  0  0  0  0  0  0  0  0  0  0
    0.2700   -1.0000    0.0000 C   0  0  0  0  0  0  0  0  0  0  0  0
    1.5700   -1.7500    0.0000 C   0  0  0  0  0  0  0  0  0  0  0  0
    2.8700   -1.0000    0.0000 C   0  0  0  0  0  0  0  0  0  0  0  0
    2.8700    0.5000    0.0000 C   0  0  0  0  0  0  0  0  0  0  0  0
   -1.1500   -1.4600    0.0000 C   0  0  0  0  0  0  0  0  0  0  0  0
   -2.0400   -0.2500    0.0000 C   0  0  0  0  0  0  0  0  0  0  0  0
   -3.1528    0.7559    0.0000 C   0  0  0  0  0  0  0  0  0  0  0  0
   -3.1528   -1.2559    0.0000 C   0  0  0  0  0  0  0  0  0  0  0  0
   -1.1500    0.9600    0.0000 O   0  0  0  0  0  0  0  0  0  0  0  0
  1  2  1  0  0  0  0 
  2  3  1  0  0  0  0 
  3  4  1  0  0  0  0 
  4  5  1  0  0  0  0 
  5  6  1  0  0  0  0 
  6  7  1  0  0  0  0 
  7  8  1  0  0  0  0 
  7  9  1  0  0  0  0 
  9 10  2  0  0  0  0 
  9 11  1  0  0  0  0 
 11 12  1  0  0  0  0 
 12 13  2  0  0  0  0 
 13 14  1  0  0  0  0 
 14 15  2  0  0  0  0 
 15 16  1  0  0  0  0 
 16 17  2  0  0  0  0 
 12 17  1  0  0  0  0 
 14 18  1  0  0  0  0 
 18 19  1  0  0  0  0 
 19 20  1  0  0  0  0 
 19 21  1  0  0  0  0 
 19 22  1  0  0  0  0 
 13 22  1  0  0  0  0 
M  END
> <Rank>
2

> <Priority_score>
1.6600000000000001

> <Reaction_type>
N-dealkylation

> <Parent_ID>
1

> <Parent_InChI>
InChI=1S/C20H32N2O3S/c1-6-8-13-22(14-9-7-2)26-21(5)19(23)24-17-12-10-11-16-15-20(3,4)25-18(16)17/h10-12H,6-9,13-15H2,1-5H3

> <Parent_SMILES>
C([H])([H])([H])C([H])([H])C([H])([H])C([H])([H])N(C([H])([H])C([H])([H])C([H])([H])C([H])([H])[H])SN(C([H])([H])[H])C(=O)OC1=C2C(=C([H])C([H])=C1[H])C([H])([H])C(C([H])([H])[H])(C([H])([H])[H])O2

$$$$

  CDK     1104240513

 27 28  0  0  0  0  0  0  0  0999 V2000
    6.7662   11.7500    0.0000 C   0  0  0  0  0  0  0  0  0  0  0  0
    6.7662   10.2500    0.0000 C   0  0  0  0  0  0  0  0  0  0  0  0
    5.4671    9.5000    0.0000 C   0  0  0  0  0  0  0  0  0  0  0  0
    5.4671    8.0000    0.0000 C   0  0  0  0  0  0  0  0  0  0  0  0
    4.1681    7.2500    0.0000 N   0  0  0  0  0  0  0  0  0  0  0  0
    3.6550    8.6595    0.0000 C   0  0  0  0  0  0  0  0  0  0  0  0
    4.6192    9.8086    0.0000 C   0  0  0  0  0  0  0  0  0  0  0  0
    4.1062   11.2181    0.0000 C   0  0  0  0  0  0  0  0  0  0  0  0
    5.0704   12.3672    0.0000 C   0  0  0  0  0  0  0  0  0  0  0  0
    2.6909    6.9895    0.0000 O   0  0  0  0  0  0  0  0  0  0  0  0
    4.1681    5.7500    0.0000 S   0  0  0  0  0  0  0  0  0  0  0  0
    2.8690    5.0000    0.0000 N   0  0  0  0  0  0  0  0  0  0  0  0
    1.5700    5.7500    0.0000 C   0  0  0  0  0  0  0  0  0  0  0  0
    2.8690    3.5000    0.0000 C   0  0  0  0  0  0  0  0  0  0  0  0
    4.1681    2.7500    0.0000 O   0  0  0  0  0  0  0  0  0  0  0  0
    1.5700    2.7500    0.0000 O   0  0  0  0  0  0  0  0  0  0  0  0
    1.5700    1.2500    0.0000 C   0  0  0  0  0  0  0  0  0  0  0  0
    0.2700    0.5000    0.0000 C   0  0  0  0  0  0  0  0  0  0  0  0
    0.2700   -1.0000    0.0000 C   0  0  0  0  0  0  0  0  0  0  0  0
    1.5700   -1.7500    0.0000 C   0  0  0  0  0  0  0  0  0  0  0  0
    2.8700   -1.0000    0.0000 C   0  0  0  0  0  0  0  0  0  0  0  0
    2.8700    0.5000    0.0000 C   0  0  0  0  0  0  0  0  0  0  0  0
   -1.1500   -1.4600    0.0000 C   0  0  0  0  0  0  0  0  0  0  0  0
   -2.0400   -0.2500    0.0000 C   0  0  0  0  0  0  0  0  0  0  0  0
   -3.1528    0.7559    0.0000 C   0  0  0  0  0  0  0  0  0  0  0  0
   -3.1528   -1.2559    0.0000 C   0  0  0  0  0  0  0  0  0  0  0  0
   -1.1500    0.9600    0.0000 O   0  0  0  0  0  0  0  0  0  0  0  0
  1  2  1  0  0  0  0 
  2  3  1  0  0  0  0 
  3  4  1  0  0  0  0 
  4  5  1  0  0  0  0 
  5  6  1  0  0  0  0 
  6  7  1  0  0  0  0 
  7  8  1  0  0  0  0 
  8  9  1  0  0  0  0 
  5 10  1  0  0  0  0 
  5 11  1  0  0  0  0 
 11 12  1  0  0  0  0 
 12 13  1  0  0  0  0 
 12 14  1  0  0  0  0 
 14 15  2  0  0  0  0 
 14 16  1  0  0  0  0 
 16 17  1  0  0  0  0 
 17 18  2  0  0  0  0 
 18 19  1  0  0  0  0 
 19 20  2  0  0  0  0 
 20 21  1  0  0  0  0 
 21 22  2  0  0  0  0 
 17 22  1  0  0  0  0 
 19 23  1  0  0  0  0 
 23 24  1  0  0  0  0 
 24 25  1  0  0  0  0 
 24 26  1  0  0  0  0 
 24 27  1  0  0  0  0 
 18 27  1  0  0  0  0 
M  CHG  1   5   1
M  CHG  1  10  -1
M  END
> <Rank>
2

> <Priority_score>
1.6600000000000001

> <Reaction_type>
N-oxidation

> <Parent_ID>
1

> <Parent_InChI>
InChI=1S/C20H32N2O3S/c1-6-8-13-22(14-9-7-2)26-21(5)19(23)24-17-12-10-11-16-15-20(3,4)25-18(16)17/h10-12H,6-9,13-15H2,1-5H3

> <Parent_SMILES>
C([H])([H])([H])C([H])([H])C([H])([H])C([H])([H])N(C([H])([H])C([H])([H])C([H])([H])C([H])([H])[H])SN(C([H])([H])[H])C(=O)OC1=C2C(=C([H])C([H])=C1[H])C([H])([H])C(C([H])([H])[H])(C([H])([H])[H])O2

$$$$

  CDK     1104240513

 27 28  0  0  0  0  0  0  0  0999 V2000
    6.7662   11.7500    0.0000 C   0  0  0  0  0  0  0  0  0  0  0  0
    6.7662   10.2500    0.0000 C   0  0  0  0  0  0  0  0  0  0  0  0
    5.4671    9.5000    0.0000 C   0  0  0  0  0  0  0  0  0  0  0  0
    5.4671    8.0000    0.0000 C   0  0  0  0  0  0  0  0  0  0  0  0
    4.1681    7.2500    0.0000 N   0  0  0  0  0  0  0  0  0  0  0  0
    2.8690    8.0000    0.0000 C   0  0  0  0  0  0  0  0  0  0  0  0
    2.8690    9.5000    0.0000 C   0  0  0  0  0  0  0  0  0  0  0  0
    4.1681   10.2500    0.0000 C   0  0  0  0  0  0  0  0  0  0  0  0
    4.1681   11.7500    0.0000 C   0  0  0  0  0  0  0  0  0  0  0  0
    1.5700    7.2500    0.0000 O   0  0  0  0  0  0  0  0  0  0  0  0
    4.1681    5.7500    0.0000 S   0  0  0  0  0  0  0  0  0  0  0  0
    2.8690    5.0000    0.0000 N   0  0  0  0  0  0  0  0  0  0  0  0
    1.5700    5.7500    0.0000 C   0  0  0  0  0  0  0  0  0  0  0  0
    2.8690    3.5000    0.0000 C   0  0  0  0  0  0  0  0  0  0  0  0
    4.1681    2.7500    0.0000 O   0  0  0  0  0  0  0  0  0  0  0  0
    1.5700    2.7500    0.0000 O   0  0  0  0  0  0  0  0  0  0  0  0
    1.5700    1.2500    0.0000 C   0  0  0  0  0  0  0  0  0  0  0  0
    0.2700    0.5000    0.0000 C   0  0  0  0  0  0  0  0  0  0  0  0
    0.2700   -1.0000    0.0000 C   0  0  0  0  0  0  0  0  0  0  0  0
    1.5700   -1.7500    0.0000 C   0  0  0  0  0  0  0  0  0  0  0  0
    2.8700   -1.0000    0.0000 C   0  0  0  0  0  0  0  0  0  0  0  0
    2.8700    0.5000    0.0000 C   0  0  0  0  0  0  0  0  0  0  0  0
   -1.1500   -1.4600    0.0000 C   0  0  0  0  0  0  0  0  0  0  0  0
   -2.0400   -0.2500    0.0000 C   0  0  0  0  0  0  0  0  0  0  0  0
   -3.1528    0.7559    0.0000 C   0  0  0  0  0  0  0  0  0  0  0  0
   -3.1528   -1.2559    0.0000 C   0  0  0  0  0  0  0  0  0  0  0  0
   -1.1500    0.9600    0.0000 O   0  0  0  0  0  0  0  0  0  0  0  0
  1  2  1  0  0  0  0 
  2  3  1  0  0  0  0 
  3  4  1  0  0  0  0 
  4  5  1  0  0  0  0 
  5  6  1  0  0  0  0 
  6  7  1  0  0  0  0 
  7  8  1  0  0  0  0 
  8  9  1  0  0  0  0 
  6 10  1  0  0  0  0 
  5 11  1  0  0  0  0 
 11 12  1  0  0  0  0 
 12 13  1  0  0  0  0 
 12 14  1  0  0  0  0 
 14 15  2  0  0  0  0 
 14 16  1  0  0  0  0 
 16 17  1  0  0  0  0 
 17 18  2  0  0  0  0 
 18 19  1  0  0  0  0 
 19 20  2  0  0  0  0 
 20 21  1  0  0  0  0 
 21 22  2  0  0  0  0 
 17 22  1  0  0  0  0 
 19 23  1  0  0  0  0 
 23 24  1  0  0  0  0 
 24 25  1  0  0  0  0 
 24 26  1  0  0  0  0 
 24 27  1  0  0  0  0 
 18 27  1  0  0  0  0 
M  END
> <Rank>
2

> <Priority_score>
1.6600000000000001

> <Reaction_type>
aliphatic hydroxylation

> <Parent_ID>
1

> <Parent_InChI>
InChI=1S/C20H32N2O3S/c1-6-8-13-22(14-9-7-2)26-21(5)19(23)24-17-12-10-11-16-15-20(3,4)25-18(16)17/h10-12H,6-9,13-15H2,1-5H3

> <Parent_SMILES>
C([H])([H])([H])C([H])([H])C([H])([H])C([H])([H])N(C([H])([H])C([H])([H])C([H])([H])C([H])([H])[H])SN(C([H])([H])[H])C(=O)OC1=C2C(=C([H])C([H])=C1[H])C([H])([H])C(C([H])([H])[H])(C([H])([H])[H])O2

$$$$

  CDK     1104240513

 27 28  0  0  0  0  0  0  0  0999 V2000
    6.7662   11.7500    0.0000 C   0  0  0  0  0  0  0  0  0  0  0  0
    6.7662   10.2500    0.0000 C   0  0  0  0  0  0  0  0  0  0  0  0
    5.4671    9.5000    0.0000 C   0  0  0  0  0  0  0  0  0  0  0  0
    5.4671    8.0000    0.0000 C   0  0  0  0  0  0  0  0  0  0  0  0
    4.1681    7.2500    0.0000 N   0  0  0  0  0  0  0  0  0  0  0  0
    2.8690    8.0000    0.0000 C   0  0  0  0  0  0  0  0  0  0  0  0
    2.8690    9.5000    0.0000 C   0  0  0  0  0  0  0  0  0  0  0  0
    4.1681   10.2500    0.0000 C   0  0  0  0  0  0  0  0  0  0  0  0
    4.1681   11.7500    0.0000 C   0  0  0  0  0  0  0  0  0  0  0  0
    4.1681    5.7500    0.0000 S   0  0  0  0  0  0  0  0  0  0  0  0
    2.8690    5.0000    0.0000 N   0  0  0  0  0  0  0  0  0  0  0  0
    1.5700    5.7500    0.0000 C   0  0  0  0  0  0  0  0  0  0  0  0
    2.8690    3.5000    0.0000 C   0  0  0  0  0  0  0  0  0  0  0  0
    4.1681    2.7500    0.0000 O   0  0  0  0  0  0  0  0  0  0  0  0
    1.5700    2.7500    0.0000 O   0  0  0  0  0  0  0  0  0  0  0  0
    1.5700    1.2500    0.0000 C   0  0  0  0  0  0  0  0  0  0  0  0
    0.2700    0.5000    0.0000 C   0  0  0  0  0  0  0  0  0  0  0  0
    0.2700   -1.0000    0.0000 C   0  0  0  0  0  0  0  0  0  0  0  0
    1.5700   -1.7500    0.0000 C   0  0  0  0  0  0  0  0  0  0  0  0
    2.8700   -1.0000    0.0000 C   0  0  0  0  0  0  0  0  0  0  0  0
    2.8700    0.5000    0.0000 C   0  0  0  0  0  0  0  0  0  0  0  0
   -1.1500   -1.4600    0.0000 C   0  0  0  0  0  0  0  0  0  0  0  0
   -2.0400   -0.2500    0.0000 C   0  0  0  0  0  0  0  0  0  0  0  0
   -3.1528    0.7559    0.0000 C   0  0  0  0  0  0  0  0  0  0  0  0
   -3.1528   -1.2559    0.0000 C   0  0  0  0  0  0  0  0  0  0  0  0
   -2.8380   -2.7225    0.0000 O   0  0  0  0  0  0  0  0  0  0  0  0
   -1.1500    0.9600    0.0000 O   0  0  0  0  0  0  0  0  0  0  0  0
  1  2  1  0  0  0  0 
  2  3  1  0  0  0  0 
  3  4  1  0  0  0  0 
  4  5  1  0  0  0  0 
  5  6  1  0  0  0  0 
  6  7  1  0  0  0  0 
  7  8  1  0  0  0  0 
  8  9  1  0  0  0  0 
  5 10  1  0  0  0  0 
 10 11  1  0  0  0  0 
 11 12  1  0  0  0  0 
 11 13  1  0  0  0  0 
 13 14  2  0  0  0  0 
 13 15  1  0  0  0  0 
 15 16  1  0  0  0  0 
 16 17  2  0  0  0  0 
 17 18  1  0  0  0  0 
 18 19  2  0  0  0  0 
 19 20  1  0  0  0  0 
 20 21  2  0  0  0  0 
 16 21  1  0  0  0  0 
 18 22  1  0  0  0  0 
 22 23  1  0  0  0  0 
 23 24  1  0  0  0  0 
 23 25  1  0  0  0  0 
 25 26  1  0  0  0  0 
 23 27  1  0  0  0  0 
 17 27  1  0  0  0  0 
M  END
> <Rank>
6

> <Priority_score>
1.11

> <Reaction_type>
aliphatic hydroxylation

> <Parent_ID>
1

> <Parent_InChI>
InChI=1S/C20H32N2O3S/c1-6-8-13-22(14-9-7-2)26-21(5)19(23)24-17-12-10-11-16-15-20(3,4)25-18(16)17/h10-12H,6-9,13-15H2,1-5H3

> <Parent_SMILES>
C([H])([H])([H])C([H])([H])C([H])([H])C([H])([H])N(C([H])([H])C([H])([H])C([H])([H])C([H])([H])[H])SN(C([H])([H])[H])C(=O)OC1=C2C(=C([H])C([H])=C1[H])C([H])([H])C(C([H])([H])[H])(C([H])([H])[H])O2

$$$$

  CDK     1104240513

 27 28  0  0  0  0  0  0  0  0999 V2000
    6.7662   11.7500    0.0000 C   0  0  0  0  0  0  0  0  0  0  0  0
    6.7662   10.2500    0.0000 C   0  0  0  0  0  0  0  0  0  0  0  0
    5.4671    9.5000    0.0000 C   0  0  0  0  0  0  0  0  0  0  0  0
    5.4671    8.0000    0.0000 C   0  0  0  0  0  0  0  0  0  0  0  0
    4.1681    7.2500    0.0000 N   0  0  0  0  0  0  0  0  0  0  0  0
    2.8690    8.0000    0.0000 C   0  0  0  0  0  0  0  0  0  0  0  0
    2.8690    9.5000    0.0000 C   0  0  0  0  0  0  0  0  0  0  0  0
    4.1681   10.2500    0.0000 C   0  0  0  0  0  0  0  0  0  0  0  0
    4.1681   11.7500    0.0000 C   0  0  0  0  0  0  0  0  0  0  0  0
    4.1681    5.7500    0.0000 S   0  0  0  0  0  0  0  0  0  0  0  0
    5.4671    5.0000    0.0000 O   0  0  0  0  0  0  0  0  0  0  0  0
    2.8690    5.0000    0.0000 N   0  0  0  0  0  0  0  0  0  0  0  0
    1.5700    5.7500    0.0000 C   0  0  0  0  0  0  0  0  0  0  0  0
    2.8690    3.5000    0.0000 C   0  0  0  0  0  0  0  0  0  0  0  0
    4.1681    2.7500    0.0000 O   0  0  0  0  0  0  0  0  0  0  0  0
    1.5700    2.7500    0.0000 O   0  0  0  0  0  0  0  0  0  0  0  0
    1.5700    1.2500    0.0000 C   0  0  0  0  0  0  0  0  0  0  0  0
    0.2700    0.5000    0.0000 C   0  0  0  0  0  0  0  0  0  0  0  0
    0.2700   -1.0000    0.0000 C   0  0  0  0  0  0  0  0  0  0  0  0
    1.5700   -1.7500    0.0000 C   0  0  0  0  0  0  0  0  0  0  0  0
    2.8700   -1.0000    0.0000 C   0  0  0  0  0  0  0  0  0  0  0  0
    2.8700    0.5000    0.0000 C   0  0  0  0  0  0  0  0  0  0  0  0
   -1.1500   -1.4600    0.0000 C   0  0  0  0  0  0  0  0  0  0  0  0
   -2.0400   -0.2500    0.0000 C   0  0  0  0  0  0  0  0  0  0  0  0
   -3.1528    0.7559    0.0000 C   0  0  0  0  0  0  0  0  0  0  0  0
   -3.1528   -1.2559    0.0000 C   0  0  0  0  0  0  0  0  0  0  0  0
   -1.1500    0.9600    0.0000 O   0  0  0  0  0  0  0  0  0  0  0  0
  1  2  1  0  0  0  0 
  2  3  1  0  0  0  0 
  3  4  1  0  0  0  0 
  4  5  1  0  0  0  0 
  5  6  1  0  0  0  0 
  6  7  1  0  0  0  0 
  7  8  1  0  0  0  0 
  8  9  1  0  0  0  0 
  5 10  1  0  0  0  0 
 10 11  2  0  0  0  0 
 10 12  1  0  0  0  0 
 12 13  1  0  0  0  0 
 12 14  1  0  0  0  0 
 14 15  2  0  0  0  0 
 14 16  1  0  0  0  0 
 16 17  1  0  0  0  0 
 17 18  2  0  0  0  0 
 18 19  1  0  0  0  0 
 19 20  2  0  0  0  0 
 20 21  1  0  0  0  0 
 21 22  2  0  0  0  0 
 17 22  1  0  0  0  0 
 19 23  1  0  0  0  0 
 23 24  1  0  0  0  0 
 24 25  1  0  0  0  0 
 24 26  1  0  0  0  0 
 24 27  1  0  0  0  0 
 18 27  1  0  0  0  0 
M  END
> <Rank>
7

> <Priority_score>
1.04

> <Reaction_type>
S-oxidation

> <Parent_ID>
1

> <Parent_InChI>
InChI=1S/C20H32N2O3S/c1-6-8-13-22(14-9-7-2)26-21(5)19(23)24-17-12-10-11-16-15-20(3,4)25-18(16)17/h10-12H,6-9,13-15H2,1-5H3

> <Parent_SMILES>
C([H])([H])([H])C([H])([H])C([H])([H])C([H])([H])N(C([H])([H])C([H])([H])C([H])([H])C([H])([H])[H])SN(C([H])([H])[H])C(=O)OC1=C2C(=C([H])C([H])=C1[H])C([H])([H])C(C([H])([H])[H])(C([H])([H])[H])O2

$$$$

  CDK     1104240513

 26 27  0  0  0  0  0  0  0  0999 V2000
    4.1681   11.7500    0.0000 C   0  0  0  0  0  0  0  0  0  0  0  0
    4.1681   10.2500    0.0000 C   0  0  0  0  0  0  0  0  0  0  0  0
    2.8690    9.5000    0.0000 C   0  0  0  0  0  0  0  0  0  0  0  0
    2.8690    8.0000    0.0000 C   0  0  0  0  0  0  0  0  0  0  0  0
    4.1681    7.2500    0.0000 N   0  0  0  0  0  0  0  0  0  0  0  0
    5.4671    8.0000    0.0000 C   0  0  0  0  0  0  0  0  0  0  0  0
    5.4671    9.5000    0.0000 C   0  0  0  0  0  0  0  0  0  0  0  0
    6.7662   10.2500    0.0000 C   0  0  0  0  0  0  0  0  0  0  0  0
    6.7662   11.7500    0.0000 C   0  0  0  0  0  0  0  0  0  0  0  0
    4.1681    5.7500    0.0000 S   0  0  0  0  0  0  0  0  0  0  0  0
    2.8690    5.0000    0.0000 N   0  0  0  0  0  0  0  0  0  0  0  0
    1.5700    5.7500    0.0000 C   0  0  0  0  0  0  0  0  0  0  0  0
    2.8690    3.5000    0.0000 C   0  0  0  0  0  0  0  0  0  0  0  0
    4.1681    2.7500    0.0000 O   0  0  0  0  0  0  0  0  0  0  0  0
    1.5700    2.7500    0.0000 O   0  0  0  0  0  0  0  0  0  0  0  0
    1.5700    1.2500    0.0000 C   0  0  0  0  0  0  0  0  0  0  0  0
    0.2700    0.5000    0.0000 C   0  0  0  0  0  0  0  0  0  0  0  0
    0.2700   -1.0000    0.0000 C   0  0  0  0  0  0  0  0  0  0  0  0
    1.5700   -1.7500    0.0000 C   0  0  0  0  0  0  0  0  0  0  0  0
    2.8700   -1.0000    0.0000 C   0  0  0  0  0  0  0  0  0  0  0  0
    2.8700    0.5000    0.0000 C   0  0  0  0  0  0  0  0  0  0  0  0
   -1.1500   -1.4600    0.0000 C   0  0  0  0  0  0  0  0  0  0  0  0
   -2.0400   -0.2500    0.0000 C   0  0  0  0  0  0  0  0  0  0  0  0
   -3.1528    0.7559    0.0000 C   0  0  0  0  0  0  0  0  0  0  0  0
   -3.1528   -1.2559    0.0000 C   0  0  0  0  0  0  0  0  0  0  0  0
   -1.1500    0.9600    0.0000 O   0  0  0  0  0  0  0  0  0  0  0  0
  1  2  1  0  0  0  0 
  2  3  1  0  0  0  0 
  3  4  1  0  0  0  0 
  4  5  2  0  0  0  0 
  5  6  1  0  0  0  0 
  6  7  1  0  0  0  0 
  7  8  1  0  0  0  0 
  8  9  1  0  0  0  0 
  5 10  1  4  0  0  0 
 10 11  1  0  0  0  0 
 11 12  1  0  0  0  0 
 11 13  1  0  0  0  0 
 13 14  2  0  0  0  0 
 13 15  1  0  0  0  0 
 15 16  1  0  0  0  0 
 16 17  2  0  0  0  0 
 17 18  1  0  0  0  0 
 18 19  2  0  0  0  0 
 19 20  1  0  0  0  0 
 20 21  2  0  0  0  0 
 16 21  1  0  0  0  0 
 18 22  1  0  0  0  0 
 22 23  1  0  0  0  0 
 23 24  1  0  0  0  0 
 23 25  1  0  0  0  0 
 23 26  1  0  0  0  0 
 17 26  1  0  0  0  0 
M  CHG  1   5   1
M  END
> <Rank>
8

> <Priority_score>
0.332

> <Reaction_type>
dehydration of N-C bond

> <Parent_ID>
1

> <Parent_InChI>
InChI=1S/C20H32N2O3S/c1-6-8-13-22(14-9-7-2)26-21(5)19(23)24-17-12-10-11-16-15-20(3,4)25-18(16)17/h10-12H,6-9,13-15H2,1-5H3

> <Parent_SMILES>
C([H])([H])([H])C([H])([H])C([H])([H])C([H])([H])N(C([H])([H])C([H])([H])C([H])([H])C([H])([H])[H])SN(C([H])([H])[H])C(=O)OC1=C2C(=C([H])C([H])=C1[H])C([H])([H])C(C([H])([H])[H])(C([H])([H])[H])O2

$$$$

  CDK     1104240513

 26 27  0  0  0  0  0  0  0  0999 V2000
    4.1681   11.7500    0.0000 C   0  0  0  0  0  0  0  0  0  0  0  0
    4.1681   10.2500    0.0000 C   0  0  0  0  0  0  0  0  0  0  0  0
    2.8690    9.5000    0.0000 C   0  0  0  0  0  0  0  0  0  0  0  0
    2.8690    8.0000    0.0000 C   0  0  0  0  0  0  0  0  0  0  0  0
    4.1681    7.2500    0.0000 N   0  0  0  0  0  0  0  0  0  0  0  0
    5.4671    8.0000    0.0000 C   0  0  0  0  0  0  0  0  0  0  0  0
    5.4671    9.5000    0.0000 C   0  0  0  0  0  0  0  0  0  0  0  0
    6.7662   10.2500    0.0000 C   0  0  0  0  0  0  0  0  0  0  0  0
    6.7662   11.7500    0.0000 C   0  0  0  0  0  0  0  0  0  0  0  0
    4.1681    5.7500    0.0000 S   0  0  0  0  0  0  0  0  0  0  0  0
    2.8690    5.0000    0.0000 N   0  0  0  0  0  0  0  0  0  0  0  0
    1.5700    5.7500    0.0000 C   0  0  0  0  0  0  0  0  0  0  0  0
    2.8690    3.5000    0.0000 C   0  0  0  0  0  0  0  0  0  0  0  0
    4.1681    2.7500    0.0000 O   0  0  0  0  0  0  0  0  0  0  0  0
    1.5700    2.7500    0.0000 O   0  0  0  0  0  0  0  0  0  0  0  0
    1.5700    1.2500    0.0000 C   0  0  0  0  0  0  0  0  0  0  0  0
    0.2700    0.5000    0.0000 C   0  0  0  0  0  0  0  0  0  0  0  0
    0.2700   -1.0000    0.0000 C   0  0  0  0  0  0  0  0  0  0  0  0
    1.5700   -1.7500    0.0000 C   0  0  0  0  0  0  0  0  0  0  0  0
    2.8700   -1.0000    0.0000 C   0  0  0  0  0  0  0  0  0  0  0  0
    2.8700    0.5000    0.0000 C   0  0  0  0  0  0  0  0  0  0  0  0
   -1.1500   -1.4600    0.0000 C   0  0  0  0  0  0  0  0  0  0  0  0
   -2.0400   -0.2500    0.0000 C   0  0  0  0  0  0  0  0  0  0  0  0
   -3.1528    0.7559    0.0000 C   0  0  0  0  0  0  0  0  0  0  0  0
   -3.1528   -1.2559    0.0000 C   0  0  0  0  0  0  0  0  0  0  0  0
   -1.1500    0.9600    0.0000 O   0  0  0  0  0  0  0  0  0  0  0  0
  1  2  1  0  0  0  0 
  2  3  1  0  0  0  0 
  3  4  2  0  0  0  0 
  4  5  1  4  0  0  0 
  5  6  1  0  0  0  0 
  6  7  1  0  0  0  0 
  7  8  1  0  0  0  0 
  8  9  1  0  0  0  0 
  5 10  1  0  0  0  0 
 10 11  1  0  0  0  0 
 11 12  1  0  0  0  0 
 11 13  1  0  0  0  0 
 13 14  2  0  0  0  0 
 13 15  1  0  0  0  0 
 15 16  1  0  0  0  0 
 16 17  2  0  0  0  0 
 17 18  1  0  0  0  0 
 18 19  2  0  0  0  0 
 19 20  1  0  0  0  0 
 20 21  2  0  0  0  0 
 16 21  1  0  0  0  0 
 18 22  1  0  0  0  0 
 22 23  1  0  0  0  0 
 23 24  1  0  0  0  0 
 23 25  1  0  0  0  0 
 23 26  1  0  0  0  0 
 17 26  1  0  0  0  0 
M  END
> <Rank>
8

> <Priority_score>
0.332

> <Reaction_type>
alkyl dehydrogenation

> <Parent_ID>
1

> <Parent_InChI>
InChI=1S/C20H32N2O3S/c1-6-8-13-22(14-9-7-2)26-21(5)19(23)24-17-12-10-11-16-15-20(3,4)25-18(16)17/h10-12H,6-9,13-15H2,1-5H3

> <Parent_SMILES>
C([H])([H])([H])C([H])([H])C([H])([H])C([H])([H])N(C([H])([H])C([H])([H])C([H])([H])C([H])([H])[H])SN(C([H])([H])[H])C(=O)OC1=C2C(=C([H])C([H])=C1[H])C([H])([H])C(C([H])([H])[H])(C([H])([H])[H])O2

$$$$
