
  CDK     1104240442

 28 30  0  0  0  0  0  0  0  0999 V2000
   -1.5967   -4.6854    0.0000 C   0  0  0  0  0  0  0  0  0  0  0  0
   -0.2977   -3.9354    0.0000 C   0  0  0  0  0  0  0  0  0  0  0  0
   -0.2974   -2.4346    0.0000 C   0  0  0  0  0  0  0  0  0  0  0  0
   -1.5966   -1.6848    0.0000 C   0  0  0  0  0  0  0  0  0  0  0  0
   -2.8955   -2.4350    0.0000 C   0  0  0  0  0  0  0  0  0  0  0  0
   -2.8879   -3.9350    0.0000 C   0  0  0  0  0  0  0  0  0  0  0  0
   -4.1541   -4.6914    0.0000 C   0  0  0  0  0  0  0  0  0  0  0  0
   -5.5079   -3.9483    0.0000 C   0  0  0  0  0  0  0  0  0  0  0  0
   -5.5155   -2.4483    0.0000 C   0  0  0  0  0  0  0  0  0  0  0  0
   -4.1693   -1.6915    0.0000 C   0  0  0  0  0  0  0  0  0  0  0  0
   -6.7968   -4.7155    0.0000 O   0  0  0  0  0  0  0  0  0  0  0  0
    1.0020   -1.6835    0.0000 C   0  0  0  0  0  0  0  0  0  0  0  0
    2.3011   -2.4333    0.0000 C   0  0  0  0  0  0  0  0  0  0  0  0
    2.3009   -3.9342    0.0000 C   0  0  0  0  0  0  0  0  0  0  0  0
    1.0015   -4.6852    0.0000 C   0  0  0  0  0  0  0  0  0  0  0  0
    3.6000   -4.6840    0.0000 O   0  0  0  0  0  0  0  0  0  0  0  0
    3.6003   -6.1840    0.0000 C   0  0  0  0  0  0  0  0  0  0  0  0
    3.6002   -1.6833    0.0000 C   0  0  1  0  0  0  0  0  0  0  0  0
    4.8992   -2.4333    0.0000 C   0  0  1  0  0  0  0  0  0  0  0  0
    6.1982   -1.6833    0.0000 C   0  0  2  0  0  0  0  0  0  0  0  0
    6.1982   -0.1833    0.0000 C   0  0  1  0  0  0  0  0  0  0  0  0
    4.8992    0.5667    0.0000 C   0  0  1  0  0  0  0  0  0  0  0  0
    4.8992    2.0667    0.0000 C   0  0  0  0  0  0  0  0  0  0  0  0
    6.1982    2.8167    0.0000 O   0  0  0  0  0  0  0  0  0  0  0  0
    3.6002   -0.1833    0.0000 S   0  0  0  0  0  0  0  0  0  0  0  0
    7.4973    0.5667    0.0000 O   0  0  0  0  0  0  0  0  0  0  0  0
    7.4973   -2.4333    0.0000 O   0  0  0  0  0  0  0  0  0  0  0  0
    4.8992   -3.9333    0.0000 O   0  0  0  0  0  0  0  0  0  0  0  0
  1  2  1  0  0  0  0 
  2  3  2  0  0  0  0 
  3  4  1  0  0  0  0 
  4  5  1  0  0  0  0 
  5  6  2  0  0  0  0 
  6  7  1  0  0  0  0 
  7  8  2  0  0  0  0 
  8  9  1  0  0  0  0 
  9 10  2  0  0  0  0 
  5 10  1  0  0  0  0 
  8 11  1  0  0  0  0 
  3 12  1  0  0  0  0 
 12 13  2  0  0  0  0 
 13 14  1  0  0  0  0 
 14 15  2  0  0  0  0 
  2 15  1  0  0  0  0 
 14 16  1  0  0  0  0 
 16 17  1  0  0  0  0 
 18 13  1  6  0  0  0 
 18 19  1  0  0  0  0 
 19 20  1  0  0  0  0 
 20 21  1  0  0  0  0 
 21 22  1  0  0  0  0 
 22 23  1  6  0  0  0 
 23 24  1  0  0  0  0 
 22 25  1  0  0  0  0 
 18 25  1  0  0  0  0 
 21 26  1  1  0  0  0 
 20 27  1  6  0  0  0 
 19 28  1  1  0  0  0 
M  END
> <Rank>
1

> <Priority_score>
4.35

> <Reaction_type>
oxidative ether cleavage to one alcohol and one aldehyde/ketone

> <Parent_ID>
1

> <Parent_InChI>
InChI=1S/C23H30O6S/c1-4-29-16-7-5-14(6-8-16)10-15-11-17(18(28-3)9-13(15)2)23-22(27)21(26)20(25)19(12-24)30-23/h5-9,11,19-27H,4,10,12H2,1-3H3/t19-,20-,21+,22-,23+/m1/s1

> <Parent_SMILES>
C([H])([H])([H])C([H])([H])OC1=C([H])C([H])=C(C([H])=C1[H])C([H])([H])C2=C(C([H])([H])[H])C([H])=C(C(=C2[H])[C@@]3([H])[C@@]([H])([C@]([H])([C@@]([H])([C@@]([H])(C([H])([H])O[H])S3)O[H])O[H])O[H])OC([H])([H])[H]

$$$$

  CDK     1104240442

  3  2  0  0  0  0  0  0  0  0999 V2000
    0.0000    0.0000    0.0000 C   0  0  0  0  0  0  0  0  0  0  0  0
    1.2990   -0.7500    0.0000 C   0  0  0  0  0  0  0  0  0  0  0  0
    2.5981   -0.0000    0.0000 O   0  0  0  0  0  0  0  0  0  0  0  0
  1  2  1  0  0  0  0 
  2  3  2  0  0  0  0 
M  END
> <Rank>
1

> <Priority_score>
4.35

> <Reaction_type>
oxidative ether cleavage to one alcohol and one aldehyde/ketone

> <Parent_ID>
1

> <Parent_InChI>
InChI=1S/C23H30O6S/c1-4-29-16-7-5-14(6-8-16)10-15-11-17(18(28-3)9-13(15)2)23-22(27)21(26)20(25)19(12-24)30-23/h5-9,11,19-27H,4,10,12H2,1-3H3/t19-,20-,21+,22-,23+/m1/s1

> <Parent_SMILES>
C([H])([H])([H])C([H])([H])OC1=C([H])C([H])=C(C([H])=C1[H])C([H])([H])C2=C(C([H])([H])[H])C([H])=C(C(=C2[H])[C@@]3([H])[C@@]([H])([C@]([H])([C@@]([H])([C@@]([H])(C([H])([H])O[H])S3)O[H])O[H])O[H])OC([H])([H])[H]

$$$$

  CDK     1104240442

 31 33  0  0  0  0  0  0  0  0999 V2000
    0.3713   -5.7923    0.0000 C   0  0  0  0  0  0  0  0  0  0  0  0
    1.6703   -5.0423    0.0000 C   0  0  0  0  0  0  0  0  0  0  0  0
    1.6706   -3.5415    0.0000 C   0  0  0  0  0  0  0  0  0  0  0  0
    0.3714   -2.7917    0.0000 C   0  0  0  0  0  0  0  0  0  0  0  0
   -0.9275   -3.5419    0.0000 C   0  0  0  0  0  0  0  0  0  0  0  0
   -0.9199   -5.0419    0.0000 C   0  0  0  0  0  0  0  0  0  0  0  0
   -2.1861   -5.7983    0.0000 C   0  0  0  0  0  0  0  0  0  0  0  0
   -3.5399   -5.0552    0.0000 C   0  0  0  0  0  0  0  0  0  0  0  0
   -3.5475   -3.5552    0.0000 C   0  0  0  0  0  0  0  0  0  0  0  0
   -2.2013   -2.7984    0.0000 C   0  0  0  0  0  0  0  0  0  0  0  0
   -4.8288   -5.8225    0.0000 O   0  0  0  0  0  0  0  0  0  0  0  0
   -6.1377   -5.0898    0.0000 C   0  0  0  0  0  0  0  0  0  0  0  0
   -7.4266   -5.8571    0.0000 C   0  0  0  0  0  0  0  0  0  0  0  0
   -6.1577   -3.5900    0.0000 O   0  0  0  0  0  0  0  0  0  0  0  0
    2.9700   -2.7905    0.0000 C   0  0  0  0  0  0  0  0  0  0  0  0
    4.2691   -3.5402    0.0000 C   0  0  0  0  0  0  0  0  0  0  0  0
    4.2689   -5.0411    0.0000 C   0  0  0  0  0  0  0  0  0  0  0  0
    2.9695   -5.7921    0.0000 C   0  0  0  0  0  0  0  0  0  0  0  0
    5.5680   -5.7909    0.0000 O   0  0  0  0  0  0  0  0  0  0  0  0
    5.5683   -7.2909    0.0000 C   0  0  0  0  0  0  0  0  0  0  0  0
    5.5682   -2.7902    0.0000 C   0  0  1  0  0  0  0  0  0  0  0  0
    6.8672   -3.5402    0.0000 C   0  0  1  0  0  0  0  0  0  0  0  0
    8.1662   -2.7902    0.0000 C   0  0  2  0  0  0  0  0  0  0  0  0
    8.1662   -1.2902    0.0000 C   0  0  1  0  0  0  0  0  0  0  0  0
    6.8672   -0.5402    0.0000 C   0  0  1  0  0  0  0  0  0  0  0  0
    6.8672    0.9598    0.0000 C   0  0  0  0  0  0  0  0  0  0  0  0
    8.1662    1.7098    0.0000 O   0  0  0  0  0  0  0  0  0  0  0  0
    5.5682   -1.2902    0.0000 S   0  0  0  0  0  0  0  0  0  0  0  0
    9.4653   -0.5402    0.0000 O   0  0  0  0  0  0  0  0  0  0  0  0
    9.4653   -3.5402    0.0000 O   0  0  0  0  0  0  0  0  0  0  0  0
    6.8672   -5.0402    0.0000 O   0  0  0  0  0  0  0  0  0  0  0  0
  1  2  1  0  0  0  0 
  2  3  2  0  0  0  0 
  3  4  1  0  0  0  0 
  4  5  1  0  0  0  0 
  5  6  2  0  0  0  0 
  6  7  1  0  0  0  0 
  7  8  2  0  0  0  0 
  8  9  1  0  0  0  0 
  9 10  2  0  0  0  0 
  5 10  1  0  0  0  0 
  8 11  1  0  0  0  0 
 11 12  1  0  0  0  0 
 12 13  1  0  0  0  0 
 12 14  1  0  0  0  0 
  3 15  1  0  0  0  0 
 15 16  2  0  0  0  0 
 16 17  1  0  0  0  0 
 17 18  2  0  0  0  0 
  2 18  1  0  0  0  0 
 17 19  1  0  0  0  0 
 19 20  1  0  0  0  0 
 21 16  1  6  0  0  0 
 21 22  1  0  0  0  0 
 22 23  1  0  0  0  0 
 23 24  1  0  0  0  0 
 24 25  1  0  0  0  0 
 25 26  1  6  0  0  0 
 26 27  1  0  0  0  0 
 25 28  1  0  0  0  0 
 21 28  1  0  0  0  0 
 24 29  1  1  0  0  0 
 23 30  1  6  0  0  0 
 22 31  1  1  0  0  0 
M  END
> <Rank>
1

> <Priority_score>
4.35

> <Reaction_type>
aliphatic hydroxylation

> <Parent_ID>
1

> <Parent_InChI>
InChI=1S/C23H30O6S/c1-4-29-16-7-5-14(6-8-16)10-15-11-17(18(28-3)9-13(15)2)23-22(27)21(26)20(25)19(12-24)30-23/h5-9,11,19-27H,4,10,12H2,1-3H3/t19-,20-,21+,22-,23+/m1/s1

> <Parent_SMILES>
C([H])([H])([H])C([H])([H])OC1=C([H])C([H])=C(C([H])=C1[H])C([H])([H])C2=C(C([H])([H])[H])C([H])=C(C(=C2[H])[C@@]3([H])[C@@]([H])([C@]([H])([C@@]([H])([C@@]([H])(C([H])([H])O[H])S3)O[H])O[H])O[H])OC([H])([H])[H]

$$$$

  CDK     1104240442

 31 32  0  0  0  0  0  0  0  0999 V2000
    9.0889   -5.2743    0.0000 C   0  0  0  0  0  0  0  0  0  0  0  0
    7.7961   -6.0350    0.0000 C   0  0  0  0  0  0  0  0  0  0  0  0
    6.4909   -5.2957    0.0000 O   0  0  0  0  0  0  0  0  0  0  0  0
    5.1981   -6.0564    0.0000 C   0  0  0  0  0  0  0  0  0  0  0  0
    3.8481   -5.3064    0.0000 C   0  0  0  0  0  0  0  0  0  0  0  0
    2.5781   -6.0564    0.0000 C   0  0  0  0  0  0  0  0  0  0  0  0
    2.5781   -7.5564    0.0000 C   0  0  0  0  0  0  0  0  0  0  0  0
    3.8481   -8.3064    0.0000 C   0  0  0  0  0  0  0  0  0  0  0  0
    5.1981   -7.5564    0.0000 C   0  0  0  0  0  0  0  0  0  0  0  0
    1.2754   -8.3000    0.0000 C   0  0  0  0  0  0  0  0  0  0  0  0
   -0.0199   -7.5436    0.0000 C   0  0  0  0  0  0  0  0  0  0  0  0
   -1.3235   -8.2874    0.0000 C   0  0  0  0  0  0  0  0  0  0  0  0
   -1.3306   -9.7874    0.0000 C   0  0  0  0  0  0  0  0  0  0  0  0
   -2.6199   -7.5313    0.0000 C   0  0  0  0  0  0  0  0  0  0  0  0
   -2.6127   -6.0313    0.0000 C   0  0  0  0  0  0  0  0  0  0  0  0
   -1.3092   -5.2875    0.0000 C   0  0  0  0  0  0  0  0  0  0  0  0
   -0.0128   -6.0436    0.0000 C   0  0  0  0  0  0  0  0  0  0  0  0
   -1.3021   -3.7875    0.0000 C   0  0  0  0  0  0  0  0  0  0  0  0
    0.0005   -3.0437    0.0000 O   0  0  0  0  0  0  0  0  0  0  0  0
   -2.5975   -3.0313    0.0000 C   0  0  1  0  0  0  0  0  0  0  0  0
   -2.5904   -1.5313    0.0000 C   0  0  2  0  0  0  0  0  0  0  0  0
   -3.8858   -0.7751    0.0000 C   0  0  1  0  0  0  0  0  0  0  0  0
   -3.8787    0.7248    0.0000 C   0  0  1  0  0  0  0  0  0  0  0  0
   -5.1741    1.4810    0.0000 C   0  0  0  0  0  0  0  0  0  0  0  0
   -5.1670    2.9810    0.0000 O   0  0  0  0  0  0  0  0  0  0  0  0
   -2.5761    1.4686    0.0000 S   0  0  0  0  0  0  0  0  0  0  0  0
   -5.1884   -1.5190    0.0000 O   0  0  0  0  0  0  0  0  0  0  0  0
   -1.2878   -0.7875    0.0000 O   0  0  0  0  0  0  0  0  0  0  0  0
   -3.9001   -3.7751    0.0000 O   0  0  0  0  0  0  0  0  0  0  0  0
   -3.9081   -5.2749    0.0000 O   0  0  0  0  0  0  0  0  0  0  0  0
   -5.2108   -6.0185    0.0000 C   0  0  0  0  0  0  0  0  0  0  0  0
  1  2  1  0  0  0  0 
  2  3  1  0  0  0  0 
  3  4  1  0  0  0  0 
  4  5  2  0  0  0  0 
  5  6  1  0  0  0  0 
  6  7  2  0  0  0  0 
  7  8  1  0  0  0  0 
  8  9  2  0  0  0  0 
  4  9  1  0  0  0  0 
  7 10  1  0  0  0  0 
 10 11  1  0  0  0  0 
 11 12  2  0  0  0  0 
 12 13  1  0  0  0  0 
 12 14  1  0  0  0  0 
 14 15  2  0  0  0  0 
 15 16  1  0  0  0  0 
 16 17  2  0  0  0  0 
 11 17  1  0  0  0  0 
 16 18  1  0  0  0  0 
 18 19  2  0  0  0  0 
 18 20  1  0  0  0  0 
 20 21  1  0  0  0  0 
 21 22  1  0  0  0  0 
 22 23  1  0  0  0  0 
 23 24  1  0  0  0  0 
 24 25  1  0  0  0  0 
 23 26  1  1  0  0  0 
 22 27  1  6  0  0  0 
 21 28  1  6  0  0  0 
 20 29  1  6  0  0  0 
 15 30  1  0  0  0  0 
 30 31  1  0  0  0  0 
M  END
> <Rank>
4

> <Priority_score>
3.3000000000000003

> <Reaction_type>
S-dealkylation

> <Parent_ID>
1

> <Parent_InChI>
InChI=1S/C23H30O6S/c1-4-29-16-7-5-14(6-8-16)10-15-11-17(18(28-3)9-13(15)2)23-22(27)21(26)20(25)19(12-24)30-23/h5-9,11,19-27H,4,10,12H2,1-3H3/t19-,20-,21+,22-,23+/m1/s1

> <Parent_SMILES>
C([H])([H])([H])C([H])([H])OC1=C([H])C([H])=C(C([H])=C1[H])C([H])([H])C2=C(C([H])([H])[H])C([H])=C(C(=C2[H])[C@@]3([H])[C@@]([H])([C@]([H])([C@@]([H])([C@@]([H])(C([H])([H])O[H])S3)O[H])O[H])O[H])OC([H])([H])[H]

$$$$

  CDK     1104240442

 31 32  0  0  0  0  0  0  0  0999 V2000
    9.0889   -5.2743    0.0000 C   0  0  0  0  0  0  0  0  0  0  0  0
    7.7961   -6.0350    0.0000 C   0  0  0  0  0  0  0  0  0  0  0  0
    6.4909   -5.2957    0.0000 O   0  0  0  0  0  0  0  0  0  0  0  0
    5.1981   -6.0564    0.0000 C   0  0  0  0  0  0  0  0  0  0  0  0
    3.8481   -5.3064    0.0000 C   0  0  0  0  0  0  0  0  0  0  0  0
    2.5781   -6.0564    0.0000 C   0  0  0  0  0  0  0  0  0  0  0  0
    2.5781   -7.5564    0.0000 C   0  0  0  0  0  0  0  0  0  0  0  0
    3.8481   -8.3064    0.0000 C   0  0  0  0  0  0  0  0  0  0  0  0
    5.1981   -7.5564    0.0000 C   0  0  0  0  0  0  0  0  0  0  0  0
    1.2754   -8.3000    0.0000 C   0  0  0  0  0  0  0  0  0  0  0  0
   -0.0199   -7.5436    0.0000 C   0  0  0  0  0  0  0  0  0  0  0  0
   -1.3235   -8.2874    0.0000 C   0  0  0  0  0  0  0  0  0  0  0  0
   -1.3306   -9.7874    0.0000 C   0  0  0  0  0  0  0  0  0  0  0  0
   -2.6199   -7.5313    0.0000 C   0  0  0  0  0  0  0  0  0  0  0  0
   -2.6127   -6.0313    0.0000 C   0  0  0  0  0  0  0  0  0  0  0  0
   -1.3092   -5.2875    0.0000 C   0  0  0  0  0  0  0  0  0  0  0  0
   -0.0128   -6.0436    0.0000 C   0  0  0  0  0  0  0  0  0  0  0  0
   -1.3021   -3.7875    0.0000 C   0  0  1  0  0  0  0  0  0  0  0  0
   -2.5975   -3.0313    0.0000 C   0  0  1  0  0  0  0  0  0  0  0  0
   -2.5904   -1.5313    0.0000 C   0  0  2  0  0  0  0  0  0  0  0  0
   -3.8858   -0.7751    0.0000 C   0  0  1  0  0  0  0  0  0  0  0  0
   -3.8787    0.7248    0.0000 C   0  0  0  0  0  0  0  0  0  0  0  0
   -2.5761    1.4686    0.0000 O   0  0  0  0  0  0  0  0  0  0  0  0
   -5.1741    1.4810    0.0000 C   0  0  0  0  0  0  0  0  0  0  0  0
   -5.1670    2.9810    0.0000 O   0  0  0  0  0  0  0  0  0  0  0  0
   -5.1884   -1.5190    0.0000 O   0  0  0  0  0  0  0  0  0  0  0  0
   -1.2878   -0.7875    0.0000 O   0  0  0  0  0  0  0  0  0  0  0  0
   -3.9001   -3.7751    0.0000 O   0  0  0  0  0  0  0  0  0  0  0  0
    0.0005   -3.0437    0.0000 S   0  0  0  0  0  0  0  0  0  0  0  0
   -3.9081   -5.2749    0.0000 O   0  0  0  0  0  0  0  0  0  0  0  0
   -5.2108   -6.0185    0.0000 C   0  0  0  0  0  0  0  0  0  0  0  0
  1  2  1  0  0  0  0 
  2  3  1  0  0  0  0 
  3  4  1  0  0  0  0 
  4  5  2  0  0  0  0 
  5  6  1  0  0  0  0 
  6  7  2  0  0  0  0 
  7  8  1  0  0  0  0 
  8  9  2  0  0  0  0 
  4  9  1  0  0  0  0 
  7 10  1  0  0  0  0 
 10 11  1  0  0  0  0 
 11 12  2  0  0  0  0 
 12 13  1  0  0  0  0 
 12 14  1  0  0  0  0 
 14 15  2  0  0  0  0 
 15 16  1  0  0  0  0 
 16 17  2  0  0  0  0 
 11 17  1  0  0  0  0 
 16 18  1  0  0  0  0 
 18 19  1  0  0  0  0 
 19 20  1  0  0  0  0 
 20 21  1  0  0  0  0 
 21 22  1  0  0  0  0 
 22 23  2  0  0  0  0 
 22 24  1  0  0  0  0 
 24 25  1  0  0  0  0 
 21 26  1  6  0  0  0 
 20 27  1  6  0  0  0 
 19 28  1  6  0  0  0 
 18 29  1  1  0  0  0 
 15 30  1  0  0  0  0 
 30 31  1  0  0  0  0 
M  END
> <Rank>
4

> <Priority_score>
3.3000000000000003

> <Reaction_type>
S-dealkylation

> <Parent_ID>
1

> <Parent_InChI>
InChI=1S/C23H30O6S/c1-4-29-16-7-5-14(6-8-16)10-15-11-17(18(28-3)9-13(15)2)23-22(27)21(26)20(25)19(12-24)30-23/h5-9,11,19-27H,4,10,12H2,1-3H3/t19-,20-,21+,22-,23+/m1/s1

> <Parent_SMILES>
C([H])([H])([H])C([H])([H])OC1=C([H])C([H])=C(C([H])=C1[H])C([H])([H])C2=C(C([H])([H])[H])C([H])=C(C(=C2[H])[C@@]3([H])[C@@]([H])([C@]([H])([C@@]([H])([C@@]([H])(C([H])([H])O[H])S3)O[H])O[H])O[H])OC([H])([H])[H]

$$$$

  CDK     1104240442

 31 33  0  0  0  0  0  0  0  0999 V2000
   13.0185   -2.9554    0.0000 C   0  0  0  0  0  0  0  0  0  0  0  0
   11.7098   -2.2223    0.0000 C   0  0  0  0  0  0  0  0  0  0  0  0
   10.4206   -2.9892    0.0000 O   0  0  0  0  0  0  0  0  0  0  0  0
    9.1119   -2.2561    0.0000 C   0  0  0  0  0  0  0  0  0  0  0  0
    9.0791   -0.7121    0.0000 C   0  0  0  0  0  0  0  0  0  0  0  0
    7.7911    0.0066    0.0000 C   0  0  0  0  0  0  0  0  0  0  0  0
    6.4957   -0.7496    0.0000 C   0  0  0  0  0  0  0  0  0  0  0  0
    6.4882   -2.2245    0.0000 C   0  0  0  0  0  0  0  0  0  0  0  0
    7.8165   -3.0123    0.0000 C   0  0  0  0  0  0  0  0  0  0  0  0
    5.1968    0.0006    0.0000 C   0  0  0  0  0  0  0  0  0  0  0  0
    3.8976   -0.7492    0.0000 C   0  0  0  0  0  0  0  0  0  0  0  0
    3.8971   -2.2500    0.0000 C   0  0  0  0  0  0  0  0  0  0  0  0
    5.1962   -3.0000    0.0000 C   0  0  0  0  0  0  0  0  0  0  0  0
    2.5976   -3.0008    0.0000 C   0  0  0  0  0  0  0  0  0  0  0  0
    1.2986   -2.2508    0.0000 C   0  0  0  0  0  0  0  0  0  0  0  0
    1.2990   -0.7500    0.0000 C   0  0  0  0  0  0  0  0  0  0  0  0
    2.5986    0.0008    0.0000 C   0  0  0  0  0  0  0  0  0  0  0  0
    0.0000    0.0000    0.0000 C   0  0  1  0  0  0  0  0  0  0  0  0
    0.0000    1.5000    0.0000 C   0  0  1  0  0  0  0  0  0  0  0  0
   -1.2990    2.2500    0.0000 C   0  0  2  0  0  0  0  0  0  0  0  0
   -2.5981    1.5000    0.0000 C   0  0  1  0  0  0  0  0  0  0  0  0
   -2.5981   -0.0000    0.0000 C   0  0  1  0  0  0  0  0  0  0  0  0
   -3.8971   -0.7500    0.0000 C   0  0  0  0  0  0  0  0  0  0  0  0
   -5.1962   -0.0000    0.0000 O   0  0  0  0  0  0  0  0  0  0  0  0
   -1.2990   -0.7500    0.0000 S   0  0  0  0  0  0  0  0  0  0  0  0
   -1.2990   -2.2500    0.0000 O   0  0  0  0  0  0  0  0  0  0  0  0
   -3.8971    2.2500    0.0000 O   0  0  0  0  0  0  0  0  0  0  0  0
   -1.2990    3.7500    0.0000 O   0  0  0  0  0  0  0  0  0  0  0  0
    1.2990    2.2500    0.0000 O   0  0  0  0  0  0  0  0  0  0  0  0
   -0.0006   -3.0006    0.0000 O   0  0  0  0  0  0  0  0  0  0  0  0
   -0.0008   -4.5006    0.0000 C   0  0  0  0  0  0  0  0  0  0  0  0
  1  2  1  0  0  0  0 
  2  3  1  0  0  0  0 
  3  4  1  0  0  0  0 
  4  5  2  0  0  0  0 
  5  6  1  0  0  0  0 
  6  7  2  0  0  0  0 
  7  8  1  0  0  0  0 
  8  9  2  0  0  0  0 
  4  9  1  0  0  0  0 
  7 10  1  0  0  0  0 
 10 11  1  0  0  0  0 
 11 12  2  0  0  0  0 
 12 13  1  0  0  0  0 
 12 14  1  0  0  0  0 
 14 15  2  0  0  0  0 
 15 16  1  0  0  0  0 
 16 17  2  0  0  0  0 
 11 17  1  0  0  0  0 
 18 16  1  6  0  0  0 
 18 19  1  0  0  0  0 
 19 20  1  0  0  0  0 
 20 21  1  0  0  0  0 
 21 22  1  0  0  0  0 
 22 23  1  6  0  0  0 
 23 24  1  0  0  0  0 
 22 25  1  0  0  0  0 
 18 25  1  0  0  0  0 
 25 26  2  0  0  0  0 
 21 27  1  1  0  0  0 
 20 28  1  6  0  0  0 
 19 29  1  1  0  0  0 
 15 30  1  0  0  0  0 
 30 31  1  0  0  0  0 
M  END
> <Rank>
4

> <Priority_score>
3.3000000000000003

> <Reaction_type>
S-oxidation

> <Parent_ID>
1

> <Parent_InChI>
InChI=1S/C23H30O6S/c1-4-29-16-7-5-14(6-8-16)10-15-11-17(18(28-3)9-13(15)2)23-22(27)21(26)20(25)19(12-24)30-23/h5-9,11,19-27H,4,10,12H2,1-3H3/t19-,20-,21+,22-,23+/m1/s1

> <Parent_SMILES>
C([H])([H])([H])C([H])([H])OC1=C([H])C([H])=C(C([H])=C1[H])C([H])([H])C2=C(C([H])([H])[H])C([H])=C(C(=C2[H])[C@@]3([H])[C@@]([H])([C@]([H])([C@@]([H])([C@@]([H])(C([H])([H])O[H])S3)O[H])O[H])O[H])OC([H])([H])[H]

$$$$

  CDK     1104240442

 31 33  0  0  0  0  0  0  0  0999 V2000
   13.0185   -2.9554    0.0000 C   0  0  0  0  0  0  0  0  0  0  0  0
   11.7098   -2.2223    0.0000 C   0  0  0  0  0  0  0  0  0  0  0  0
   10.4206   -2.9892    0.0000 O   0  0  0  0  0  0  0  0  0  0  0  0
    9.1119   -2.2561    0.0000 C   0  0  0  0  0  0  0  0  0  0  0  0
    9.0791   -0.7121    0.0000 C   0  0  0  0  0  0  0  0  0  0  0  0
    7.7911    0.0066    0.0000 C   0  0  0  0  0  0  0  0  0  0  0  0
    6.4957   -0.7496    0.0000 C   0  0  0  0  0  0  0  0  0  0  0  0
    6.4882   -2.2245    0.0000 C   0  0  0  0  0  0  0  0  0  0  0  0
    7.8165   -3.0123    0.0000 C   0  0  0  0  0  0  0  0  0  0  0  0
    5.1968    0.0006    0.0000 C   0  0  0  0  0  0  0  0  0  0  0  0
    3.8976   -0.7492    0.0000 C   0  0  0  0  0  0  0  0  0  0  0  0
    3.8971   -2.2500    0.0000 C   0  0  0  0  0  0  0  0  0  0  0  0
    5.1962   -3.0000    0.0000 C   0  0  0  0  0  0  0  0  0  0  0  0
    2.5976   -3.0008    0.0000 C   0  0  0  0  0  0  0  0  0  0  0  0
    1.2986   -2.2508    0.0000 C   0  0  0  0  0  0  0  0  0  0  0  0
    1.2990   -0.7500    0.0000 C   0  0  0  0  0  0  0  0  0  0  0  0
    2.5986    0.0008    0.0000 C   0  0  0  0  0  0  0  0  0  0  0  0
    0.0000    0.0000    0.0000 C   0  0  1  0  0  0  0  0  0  0  0  0
    0.0000    1.5000    0.0000 C   0  0  1  0  0  0  0  0  0  0  0  0
   -1.2990    2.2500    0.0000 C   0  0  2  0  0  0  0  0  0  0  0  0
   -2.5981    1.5000    0.0000 C   0  0  1  0  0  0  0  0  0  0  0  0
   -2.5981   -0.0000    0.0000 C   0  0  1  0  0  0  0  0  0  0  0  0
   -3.8971   -0.7500    0.0000 C   0  0  0  0  0  0  0  0  0  0  0  0
   -5.1962   -0.0000    0.0000 O   0  0  0  0  0  0  0  0  0  0  0  0
   -1.2990   -0.7500    0.0000 S   0  0  0  0  0  0  0  0  0  0  0  0
   -3.8971    2.2500    0.0000 O   0  0  0  0  0  0  0  0  0  0  0  0
   -1.2990    3.7500    0.0000 O   0  0  0  0  0  0  0  0  0  0  0  0
    1.2990    2.2500    0.0000 O   0  0  0  0  0  0  0  0  0  0  0  0
   -0.0006   -3.0006    0.0000 O   0  0  0  0  0  0  0  0  0  0  0  0
   -0.0008   -4.5006    0.0000 C   0  0  0  0  0  0  0  0  0  0  0  0
   -1.3000   -5.2504    0.0000 O   0  0  0  0  0  0  0  0  0  0  0  0
  1  2  1  0  0  0  0 
  2  3  1  0  0  0  0 
  3  4  1  0  0  0  0 
  4  5  2  0  0  0  0 
  5  6  1  0  0  0  0 
  6  7  2  0  0  0  0 
  7  8  1  0  0  0  0 
  8  9  2  0  0  0  0 
  4  9  1  0  0  0  0 
  7 10  1  0  0  0  0 
 10 11  1  0  0  0  0 
 11 12  2  0  0  0  0 
 12 13  1  0  0  0  0 
 12 14  1  0  0  0  0 
 14 15  2  0  0  0  0 
 15 16  1  0  0  0  0 
 16 17  2  0  0  0  0 
 11 17  1  0  0  0  0 
 18 16  1  6  0  0  0 
 18 19  1  0  0  0  0 
 19 20  1  0  0  0  0 
 20 21  1  0  0  0  0 
 21 22  1  0  0  0  0 
 22 23  1  6  0  0  0 
 23 24  1  0  0  0  0 
 22 25  1  0  0  0  0 
 18 25  1  0  0  0  0 
 21 26  1  1  0  0  0 
 20 27  1  6  0  0  0 
 19 28  1  1  0  0  0 
 15 29  1  0  0  0  0 
 29 30  1  0  0  0  0 
 30 31  1  0  0  0  0 
M  END
> <Rank>
7

> <Priority_score>
1.9100000000000001

> <Reaction_type>
aliphatic hydroxylation

> <Parent_ID>
1

> <Parent_InChI>
InChI=1S/C23H30O6S/c1-4-29-16-7-5-14(6-8-16)10-15-11-17(18(28-3)9-13(15)2)23-22(27)21(26)20(25)19(12-24)30-23/h5-9,11,19-27H,4,10,12H2,1-3H3/t19-,20-,21+,22-,23+/m1/s1

> <Parent_SMILES>
C([H])([H])([H])C([H])([H])OC1=C([H])C([H])=C(C([H])=C1[H])C([H])([H])C2=C(C([H])([H])[H])C([H])=C(C(=C2[H])[C@@]3([H])[C@@]([H])([C@]([H])([C@@]([H])([C@@]([H])(C([H])([H])O[H])S3)O[H])O[H])O[H])OC([H])([H])[H]

$$$$

  CDK     1104240442

 29 31  0  0  0  0  0  0  0  0999 V2000
   13.0185   -2.9554    0.0000 C   0  0  0  0  0  0  0  0  0  0  0  0
   11.7098   -2.2223    0.0000 C   0  0  0  0  0  0  0  0  0  0  0  0
   10.4206   -2.9892    0.0000 O   0  0  0  0  0  0  0  0  0  0  0  0
    9.1119   -2.2561    0.0000 C   0  0  0  0  0  0  0  0  0  0  0  0
    9.0791   -0.7121    0.0000 C   0  0  0  0  0  0  0  0  0  0  0  0
    7.7911    0.0066    0.0000 C   0  0  0  0  0  0  0  0  0  0  0  0
    6.4957   -0.7496    0.0000 C   0  0  0  0  0  0  0  0  0  0  0  0
    6.4882   -2.2245    0.0000 C   0  0  0  0  0  0  0  0  0  0  0  0
    7.8165   -3.0123    0.0000 C   0  0  0  0  0  0  0  0  0  0  0  0
    5.1968    0.0006    0.0000 C   0  0  0  0  0  0  0  0  0  0  0  0
    3.8976   -0.7492    0.0000 C   0  0  0  0  0  0  0  0  0  0  0  0
    3.8971   -2.2500    0.0000 C   0  0  0  0  0  0  0  0  0  0  0  0
    5.1962   -3.0000    0.0000 C   0  0  0  0  0  0  0  0  0  0  0  0
    2.5976   -3.0008    0.0000 C   0  0  0  0  0  0  0  0  0  0  0  0
    1.2986   -2.2508    0.0000 C   0  0  0  0  0  0  0  0  0  0  0  0
    1.2990   -0.7500    0.0000 C   0  0  0  0  0  0  0  0  0  0  0  0
    2.5986    0.0008    0.0000 C   0  0  0  0  0  0  0  0  0  0  0  0
    0.0000    0.0000    0.0000 C   0  0  1  0  0  0  0  0  0  0  0  0
    0.0000    1.5000    0.0000 C   0  0  1  0  0  0  0  0  0  0  0  0
   -1.2990    2.2500    0.0000 C   0  0  2  0  0  0  0  0  0  0  0  0
   -2.5981    1.5000    0.0000 C   0  0  1  0  0  0  0  0  0  0  0  0
   -2.5981   -0.0000    0.0000 C   0  0  1  0  0  0  0  0  0  0  0  0
   -3.8971   -0.7500    0.0000 C   0  0  0  0  0  0  0  0  0  0  0  0
   -5.1962   -0.0000    0.0000 O   0  0  0  0  0  0  0  0  0  0  0  0
   -1.2990   -0.7500    0.0000 S   0  0  0  0  0  0  0  0  0  0  0  0
   -3.8971    2.2500    0.0000 O   0  0  0  0  0  0  0  0  0  0  0  0
   -1.2990    3.7500    0.0000 O   0  0  0  0  0  0  0  0  0  0  0  0
    1.2990    2.2500    0.0000 O   0  0  0  0  0  0  0  0  0  0  0  0
   -0.0006   -3.0006    0.0000 O   0  0  0  0  0  0  0  0  0  0  0  0
  1  2  1  0  0  0  0 
  2  3  1  0  0  0  0 
  3  4  1  0  0  0  0 
  4  5  2  0  0  0  0 
  5  6  1  0  0  0  0 
  6  7  2  0  0  0  0 
  7  8  1  0  0  0  0 
  8  9  2  0  0  0  0 
  4  9  1  0  0  0  0 
  7 10  1  0  0  0  0 
 10 11  1  0  0  0  0 
 11 12  2  0  0  0  0 
 12 13  1  0  0  0  0 
 12 14  1  0  0  0  0 
 14 15  2  0  0  0  0 
 15 16  1  0  0  0  0 
 16 17  2  0  0  0  0 
 11 17  1  0  0  0  0 
 18 16  1  6  0  0  0 
 18 19  1  0  0  0  0 
 19 20  1  0  0  0  0 
 20 21  1  0  0  0  0 
 21 22  1  0  0  0  0 
 22 23  1  6  0  0  0 
 23 24  1  0  0  0  0 
 22 25  1  0  0  0  0 
 18 25  1  0  0  0  0 
 21 26  1  1  0  0  0 
 20 27  1  6  0  0  0 
 19 28  1  1  0  0  0 
 15 29  1  0  0  0  0 
M  END
> <Rank>
7

> <Priority_score>
1.9100000000000001

> <Reaction_type>
oxidative ether cleavage to one alcohol and one aldehyde/ketone

> <Parent_ID>
1

> <Parent_InChI>
InChI=1S/C23H30O6S/c1-4-29-16-7-5-14(6-8-16)10-15-11-17(18(28-3)9-13(15)2)23-22(27)21(26)20(25)19(12-24)30-23/h5-9,11,19-27H,4,10,12H2,1-3H3/t19-,20-,21+,22-,23+/m1/s1

> <Parent_SMILES>
C([H])([H])([H])C([H])([H])OC1=C([H])C([H])=C(C([H])=C1[H])C([H])([H])C2=C(C([H])([H])[H])C([H])=C(C(=C2[H])[C@@]3([H])[C@@]([H])([C@]([H])([C@@]([H])([C@@]([H])(C([H])([H])O[H])S3)O[H])O[H])O[H])OC([H])([H])[H]

$$$$

  CDK     1104240442

 31 33  0  0  0  0  0  0  0  0999 V2000
   13.0185   -2.9554    0.0000 C   0  0  0  0  0  0  0  0  0  0  0  0
   11.7098   -2.2223    0.0000 C   0  0  0  0  0  0  0  0  0  0  0  0
   10.4206   -2.9892    0.0000 O   0  0  0  0  0  0  0  0  0  0  0  0
    9.1119   -2.2561    0.0000 C   0  0  0  0  0  0  0  0  0  0  0  0
    9.0791   -0.7121    0.0000 C   0  0  0  0  0  0  0  0  0  0  0  0
    7.7911    0.0066    0.0000 C   0  0  0  0  0  0  0  0  0  0  0  0
    6.4957   -0.7496    0.0000 C   0  0  0  0  0  0  0  0  0  0  0  0
    6.4882   -2.2245    0.0000 C   0  0  0  0  0  0  0  0  0  0  0  0
    7.8165   -3.0123    0.0000 C   0  0  0  0  0  0  0  0  0  0  0  0
    5.1968    0.0006    0.0000 C   0  0  0  0  0  0  0  0  0  0  0  0
    3.8976   -0.7492    0.0000 C   0  0  0  0  0  0  0  0  0  0  0  0
    3.8971   -2.2500    0.0000 C   0  0  0  0  0  0  0  0  0  0  0  0
    2.5976   -3.0008    0.0000 C   0  0  0  0  0  0  0  0  0  0  0  0
    1.2986   -2.2508    0.0000 C   0  0  0  0  0  0  0  0  0  0  0  0
    1.2990   -0.7500    0.0000 C   0  0  0  0  0  0  0  0  0  0  0  0
    2.5986    0.0008    0.0000 C   0  0  0  0  0  0  0  0  0  0  0  0
    0.0000    0.0000    0.0000 C   0  0  1  0  0  0  0  0  0  0  0  0
    0.0000    1.5000    0.0000 C   0  0  1  0  0  0  0  0  0  0  0  0
   -1.2990    2.2500    0.0000 C   0  0  2  0  0  0  0  0  0  0  0  0
   -2.5981    1.5000    0.0000 C   0  0  1  0  0  0  0  0  0  0  0  0
   -2.5981   -0.0000    0.0000 C   0  0  1  0  0  0  0  0  0  0  0  0
   -3.8971   -0.7500    0.0000 C   0  0  0  0  0  0  0  0  0  0  0  0
   -5.1962   -0.0000    0.0000 O   0  0  0  0  0  0  0  0  0  0  0  0
   -1.2990   -0.7500    0.0000 S   0  0  0  0  0  0  0  0  0  0  0  0
   -3.8971    2.2500    0.0000 O   0  0  0  0  0  0  0  0  0  0  0  0
   -1.2990    3.7500    0.0000 O   0  0  0  0  0  0  0  0  0  0  0  0
    1.2990    2.2500    0.0000 O   0  0  0  0  0  0  0  0  0  0  0  0
   -0.0006   -3.0006    0.0000 O   0  0  0  0  0  0  0  0  0  0  0  0
   -0.0008   -4.5006    0.0000 C   0  0  0  0  0  0  0  0  0  0  0  0
    5.1962   -3.0000    0.0000 C   0  0  0  0  0  0  0  0  0  0  0  0
    5.1962   -4.5000    0.0000 O   0  0  0  0  0  0  0  0  0  0  0  0
  1  2  1  0  0  0  0 
  2  3  1  0  0  0  0 
  3  4  1  0  0  0  0 
  4  5  2  0  0  0  0 
  5  6  1  0  0  0  0 
  6  7  2  0  0  0  0 
  7  8  1  0  0  0  0 
  8  9  2  0  0  0  0 
  4  9  1  0  0  0  0 
  7 10  1  0  0  0  0 
 10 11  1  0  0  0  0 
 11 12  2  0  0  0  0 
 12 13  1  0  0  0  0 
 13 14  2  0  0  0  0 
 14 15  1  0  0  0  0 
 15 16  2  0  0  0  0 
 11 16  1  0  0  0  0 
 17 15  1  6  0  0  0 
 17 18  1  0  0  0  0 
 18 19  1  0  0  0  0 
 19 20  1  0  0  0  0 
 20 21  1  0  0  0  0 
 21 22  1  6  0  0  0 
 22 23  1  0  0  0  0 
 21 24  1  0  0  0  0 
 17 24  1  0  0  0  0 
 20 25  1  1  0  0  0 
 19 26  1  6  0  0  0 
 18 27  1  1  0  0  0 
 14 28  1  0  0  0  0 
 28 29  1  0  0  0  0 
 12 30  1  0  0  0  0 
 30 31  1  0  0  0  0 
M  END
> <Rank>
9

> <Priority_score>
1.36

> <Reaction_type>
aliphatic hydroxylation

> <Parent_ID>
1

> <Parent_InChI>
InChI=1S/C23H30O6S/c1-4-29-16-7-5-14(6-8-16)10-15-11-17(18(28-3)9-13(15)2)23-22(27)21(26)20(25)19(12-24)30-23/h5-9,11,19-27H,4,10,12H2,1-3H3/t19-,20-,21+,22-,23+/m1/s1

> <Parent_SMILES>
C([H])([H])([H])C([H])([H])OC1=C([H])C([H])=C(C([H])=C1[H])C([H])([H])C2=C(C([H])([H])[H])C([H])=C(C(=C2[H])[C@@]3([H])[C@@]([H])([C@]([H])([C@@]([H])([C@@]([H])(C([H])([H])O[H])S3)O[H])O[H])O[H])OC([H])([H])[H]

$$$$

  CDK     1104240442

 29 31  0  0  0  0  0  0  0  0999 V2000
    5.1983   -2.9996    0.0000 C   0  0  0  0  0  0  0  0  0  0  0  0
    3.8993   -2.2496    0.0000 C   0  0  0  0  0  0  0  0  0  0  0  0
    2.5994   -2.9998    0.0000 C   0  0  0  0  0  0  0  0  0  0  0  0
    1.2993   -2.2500    0.0000 C   0  0  0  0  0  0  0  0  0  0  0  0
    1.2990   -0.7500    0.0000 C   0  0  0  0  0  0  0  0  0  0  0  0
    2.5989    0.0002    0.0000 C   0  0  0  0  0  0  0  0  0  0  0  0
    3.8990   -0.7496    0.0000 C   0  0  0  0  0  0  0  0  0  0  0  0
    2.5987    1.5002    0.0000 O   0  0  0  0  0  0  0  0  0  0  0  0
    3.8976    2.2504    0.0000 C   0  0  0  0  0  0  0  0  0  0  0  0
    0.0000    0.0000    0.0000 C   0  0  1  0  0  0  0  0  0  0  0  0
    0.0000    1.5000    0.0000 C   0  0  1  0  0  0  0  0  0  0  0  0
   -1.2990    2.2500    0.0000 C   0  0  2  0  0  0  0  0  0  0  0  0
   -2.5981    1.5000    0.0000 C   0  0  1  0  0  0  0  0  0  0  0  0
   -2.5981   -0.0000    0.0000 C   0  0  1  0  0  0  0  0  0  0  0  0
   -3.8971   -0.7500    0.0000 C   0  0  0  0  0  0  0  0  0  0  0  0
   -5.1962   -0.0000    0.0000 O   0  0  0  0  0  0  0  0  0  0  0  0
   -1.2990   -0.7500    0.0000 S   0  0  0  0  0  0  0  0  0  0  0  0
   -3.8971    2.2500    0.0000 O   0  0  0  0  0  0  0  0  0  0  0  0
   -1.2990    3.7500    0.0000 O   0  0  0  0  0  0  0  0  0  0  0  0
    1.2990    2.2500    0.0000 O   0  0  0  0  0  0  0  0  0  0  0  0
    2.5996   -4.4998    0.0000 C   0  0  0  0  0  0  0  0  0  0  0  0
    3.8988   -5.2496    0.0000 C   0  0  0  0  0  0  0  0  0  0  0  0
    4.4120   -3.8392    0.0000 C   0  0  0  0  0  0  0  0  0  0  0  0
    5.8899   -3.5776    0.0000 C   0  0  0  0  0  0  0  0  0  0  0  0
    6.8545   -4.7263    0.0000 C   0  0  0  0  0  0  0  0  0  0  0  0
    8.3317   -4.4655    0.0000 O   0  0  0  0  0  0  0  0  0  0  0  0
    6.3413   -6.1366    0.0000 C   0  0  0  0  0  0  0  0  0  0  0  0
    4.8634   -6.3983    0.0000 C   0  0  0  0  0  0  0  0  0  0  0  0
    2.9349   -6.3989    0.0000 O   0  0  0  0  0  0  0  0  0  0  0  0
  1  2  1  0  0  0  0 
  2  3  2  0  0  0  0 
  3  4  1  0  0  0  0 
  4  5  2  0  0  0  0 
  5  6  1  0  0  0  0 
  6  7  2  0  0  0  0 
  2  7  1  0  0  0  0 
  6  8  1  0  0  0  0 
  8  9  1  0  0  0  0 
 10  5  1  6  0  0  0 
 10 11  1  0  0  0  0 
 11 12  1  0  0  0  0 
 12 13  1  0  0  0  0 
 13 14  1  0  0  0  0 
 14 15  1  6  0  0  0 
 15 16  1  0  0  0  0 
 14 17  1  0  0  0  0 
 10 17  1  0  0  0  0 
 13 18  1  1  0  0  0 
 12 19  1  6  0  0  0 
 11 20  1  1  0  0  0 
  3 21  1  0  0  0  0 
 21 22  1  0  0  0  0 
 22 23  1  0  0  0  0 
 23 24  2  0  0  0  0 
 24 25  1  0  0  0  0 
 25 26  2  0  0  0  0 
 25 27  1  0  0  0  0 
 27 28  2  0  0  0  0 
 22 28  1  0  0  0  0 
 22 29  1  0  0  0  0 
M  END
> <Rank>
10

> <Priority_score>
0.87

> <Reaction_type>
oxidation of 4-substituted anisole to quinone (substituent not a leaving group)

> <Parent_ID>
1

> <Parent_InChI>
InChI=1S/C23H30O6S/c1-4-29-16-7-5-14(6-8-16)10-15-11-17(18(28-3)9-13(15)2)23-22(27)21(26)20(25)19(12-24)30-23/h5-9,11,19-27H,4,10,12H2,1-3H3/t19-,20-,21+,22-,23+/m1/s1

> <Parent_SMILES>
C([H])([H])([H])C([H])([H])OC1=C([H])C([H])=C(C([H])=C1[H])C([H])([H])C2=C(C([H])([H])[H])C([H])=C(C(=C2[H])[C@@]3([H])[C@@]([H])([C@]([H])([C@@]([H])([C@@]([H])(C([H])([H])O[H])S3)O[H])O[H])O[H])OC([H])([H])[H]

$$$$

  CDK     1104240442

 30 32  0  0  0  0  0  0  0  0999 V2000
   13.0185   -2.9554    0.0000 C   0  0  0  0  0  0  0  0  0  0  0  0
   11.7098   -2.2223    0.0000 C   0  0  0  0  0  0  0  0  0  0  0  0
   10.4206   -2.9892    0.0000 O   0  0  0  0  0  0  0  0  0  0  0  0
    9.1119   -2.2561    0.0000 C   0  0  0  0  0  0  0  0  0  0  0  0
    9.0791   -0.7121    0.0000 C   0  0  0  0  0  0  0  0  0  0  0  0
    7.7911    0.0066    0.0000 C   0  0  0  0  0  0  0  0  0  0  0  0
    6.4957   -0.7496    0.0000 C   0  0  0  0  0  0  0  0  0  0  0  0
    6.4882   -2.2245    0.0000 C   0  0  0  0  0  0  0  0  0  0  0  0
    7.8165   -3.0123    0.0000 C   0  0  0  0  0  0  0  0  0  0  0  0
    5.1968    0.0006    0.0000 C   0  0  0  0  0  0  0  0  0  0  0  0
    3.8976   -0.7492    0.0000 C   0  0  0  0  0  0  0  0  0  0  0  0
    3.8971   -2.2500    0.0000 C   0  0  0  0  0  0  0  0  0  0  0  0
    5.1962   -3.0000    0.0000 C   0  0  0  0  0  0  0  0  0  0  0  0
    2.5976   -3.0008    0.0000 C   0  0  0  0  0  0  0  0  0  0  0  0
    1.2986   -2.2508    0.0000 C   0  0  0  0  0  0  0  0  0  0  0  0
    1.2990   -0.7500    0.0000 C   0  0  0  0  0  0  0  0  0  0  0  0
    2.5986    0.0008    0.0000 C   0  0  0  0  0  0  0  0  0  0  0  0
    0.0000    0.0000    0.0000 C   0  0  1  0  0  0  0  0  0  0  0  0
    0.0000    1.5000    0.0000 C   0  0  1  0  0  0  0  0  0  0  0  0
   -1.2990    2.2500    0.0000 C   0  0  2  0  0  0  0  0  0  0  0  0
   -2.5981    1.5000    0.0000 C   0  0  1  0  0  0  0  0  0  0  0  0
   -2.5981   -0.0000    0.0000 C   0  0  1  0  0  0  0  0  0  0  0  0
   -3.8971   -0.7500    0.0000 C   0  0  0  0  0  0  0  0  0  0  0  0
   -5.1962   -0.0000    0.0000 O   0  0  0  0  0  0  0  0  0  0  0  0
   -1.2990   -0.7500    0.0000 S   0  0  0  0  0  0  0  0  0  0  0  0
   -3.8971    2.2500    0.0000 O   0  0  0  0  0  0  0  0  0  0  0  0
   -1.2990    3.7500    0.0000 O   0  0  0  0  0  0  0  0  0  0  0  0
    1.2990    2.2500    0.0000 O   0  0  0  0  0  0  0  0  0  0  0  0
   -0.0006   -3.0006    0.0000 O   0  0  0  0  0  0  0  0  0  0  0  0
   -0.0008   -4.5006    0.0000 C   0  0  0  0  0  0  0  0  0  0  0  0
  1  2  2  0  0  0  0 
  2  3  1  0  0  0  0 
  3  4  1  0  0  0  0 
  4  5  2  0  0  0  0 
  5  6  1  0  0  0  0 
  6  7  2  0  0  0  0 
  7  8  1  0  0  0  0 
  8  9  2  0  0  0  0 
  4  9  1  0  0  0  0 
  7 10  1  0  0  0  0 
 10 11  1  0  0  0  0 
 11 12  2  0  0  0  0 
 12 13  1  0  0  0  0 
 12 14  1  0  0  0  0 
 14 15  2  0  0  0  0 
 15 16  1  0  0  0  0 
 16 17  2  0  0  0  0 
 11 17  1  0  0  0  0 
 18 16  1  6  0  0  0 
 18 19  1  0  0  0  0 
 19 20  1  0  0  0  0 
 20 21  1  0  0  0  0 
 21 22  1  0  0  0  0 
 22 23  1  6  0  0  0 
 23 24  1  0  0  0  0 
 22 25  1  0  0  0  0 
 18 25  1  0  0  0  0 
 21 26  1  1  0  0  0 
 20 27  1  6  0  0  0 
 19 28  1  1  0  0  0 
 15 29  1  0  0  0  0 
 29 30  1  0  0  0  0 
M  END
> <Rank>
10

> <Priority_score>
0.87

> <Reaction_type>
alkyl dehydrogenation

> <Parent_ID>
1

> <Parent_InChI>
InChI=1S/C23H30O6S/c1-4-29-16-7-5-14(6-8-16)10-15-11-17(18(28-3)9-13(15)2)23-22(27)21(26)20(25)19(12-24)30-23/h5-9,11,19-27H,4,10,12H2,1-3H3/t19-,20-,21+,22-,23+/m1/s1

> <Parent_SMILES>
C([H])([H])([H])C([H])([H])OC1=C([H])C([H])=C(C([H])=C1[H])C([H])([H])C2=C(C([H])([H])[H])C([H])=C(C(=C2[H])[C@@]3([H])[C@@]([H])([C@]([H])([C@@]([H])([C@@]([H])(C([H])([H])O[H])S3)O[H])O[H])O[H])OC([H])([H])[H]

$$$$

  CDK     1104240442

 30 32  0  0  0  0  0  0  0  0999 V2000
    8.6247   -5.4823    0.0000 C   0  0  0  0  0  0  0  0  0  0  0  0
    7.1442   -5.2407    0.0000 C   0  0  0  0  0  0  0  0  0  0  0  0
    6.6132   -3.8379    0.0000 O   0  0  0  0  0  0  0  0  0  0  0  0
    5.1328   -3.5963    0.0000 C   0  0  0  0  0  0  0  0  0  0  0  0
    4.5742   -2.1566    0.0000 C   0  0  0  0  0  0  0  0  0  0  0  0
    3.1181   -1.9214    0.0000 C   0  0  0  0  0  0  0  0  0  0  0  0
    2.1592   -3.0748    0.0000 C   0  0  0  0  0  0  0  0  0  0  0  0
    2.6563   -4.4634    0.0000 C   0  0  0  0  0  0  0  0  0  0  0  0
    4.1738   -4.7498    0.0000 C   0  0  0  0  0  0  0  0  0  0  0  0
    0.6820   -2.8138    0.0000 C   0  0  0  0  0  0  0  0  0  0  0  0
    0.1695   -1.4041    0.0000 C   0  0  0  0  0  0  0  0  0  0  0  0
   -1.1306   -2.1539    0.0000 C   0  0  0  0  0  0  0  0  0  0  0  0
   -2.4305   -1.4036    0.0000 C   0  0  0  0  0  0  0  0  0  0  0  0
   -2.4302    0.0964    0.0000 C   0  0  0  0  0  0  0  0  0  0  0  0
   -3.7290    0.8468    0.0000 O   0  0  0  0  0  0  0  0  0  0  0  0
   -1.1301    0.8461    0.0000 C   0  0  0  0  0  0  0  0  0  0  0  0
    0.1698    0.0959    0.0000 C   0  0  0  0  0  0  0  0  0  0  0  0
    1.4688    0.8459    0.0000 C   0  0  0  0  0  0  0  0  0  0  0  0
   -3.7295   -2.1536    0.0000 C   0  0  1  0  0  0  0  0  0  0  0  0
   -5.0285   -1.4036    0.0000 C   0  0  1  0  0  0  0  0  0  0  0  0
   -6.3276   -2.1536    0.0000 C   0  0  2  0  0  0  0  0  0  0  0  0
   -6.3276   -3.6536    0.0000 C   0  0  1  0  0  0  0  0  0  0  0  0
   -5.0285   -4.4036    0.0000 C   0  0  1  0  0  0  0  0  0  0  0  0
   -5.0285   -5.9036    0.0000 C   0  0  0  0  0  0  0  0  0  0  0  0
   -6.3276   -6.6536    0.0000 O   0  0  0  0  0  0  0  0  0  0  0  0
   -3.7295   -3.6536    0.0000 S   0  0  0  0  0  0  0  0  0  0  0  0
   -7.6266   -4.4036    0.0000 O   0  0  0  0  0  0  0  0  0  0  0  0
   -7.6266   -1.4036    0.0000 O   0  0  0  0  0  0  0  0  0  0  0  0
   -5.0285    0.0964    0.0000 O   0  0  0  0  0  0  0  0  0  0  0  0
    1.6468   -1.1440    0.0000 O   0  0  0  0  0  0  0  0  0  0  0  0
  1  2  1  0  0  0  0 
  2  3  1  0  0  0  0 
  3  4  1  0  0  0  0 
  4  5  2  0  0  0  0 
  5  6  1  0  0  0  0 
  6  7  2  0  0  0  0 
  7  8  1  0  0  0  0 
  8  9  2  0  0  0  0 
  4  9  1  0  0  0  0 
  7 10  1  0  0  0  0 
 10 11  1  0  0  0  0 
 11 12  1  0  0  0  0 
 12 13  2  0  0  0  0 
 13 14  1  0  0  0  0 
 14 15  2  0  0  0  0 
 14 16  1  0  0  0  0 
 16 17  2  0  0  0  0 
 11 17  1  0  0  0  0 
 17 18  1  0  0  0  0 
 19 13  1  6  0  0  0 
 19 20  1  0  0  0  0 
 20 21  1  0  0  0  0 
 21 22  1  0  0  0  0 
 22 23  1  0  0  0  0 
 23 24  1  6  0  0  0 
 24 25  1  0  0  0  0 
 23 26  1  0  0  0  0 
 19 26  1  0  0  0  0 
 22 27  1  1  0  0  0 
 21 28  1  6  0  0  0 
 20 29  1  1  0  0  0 
 11 30  1  0  0  0  0 
M  END
> <Rank>
12

> <Priority_score>
0.382

> <Reaction_type>
oxidation of 4-substituted anisole to quinone (substituent not a leaving group)

> <Parent_ID>
1

> <Parent_InChI>
InChI=1S/C23H30O6S/c1-4-29-16-7-5-14(6-8-16)10-15-11-17(18(28-3)9-13(15)2)23-22(27)21(26)20(25)19(12-24)30-23/h5-9,11,19-27H,4,10,12H2,1-3H3/t19-,20-,21+,22-,23+/m1/s1

> <Parent_SMILES>
C([H])([H])([H])C([H])([H])OC1=C([H])C([H])=C(C([H])=C1[H])C([H])([H])C2=C(C([H])([H])[H])C([H])=C(C(=C2[H])[C@@]3([H])[C@@]([H])([C@]([H])([C@@]([H])([C@@]([H])(C([H])([H])O[H])S3)O[H])O[H])O[H])OC([H])([H])[H]

$$$$
