
  CDK     1104240440

 18 20  0  0  0  0  0  0  0  0999 V2000
   -3.8291    4.3718    0.0000 C   0  0  0  0  0  0  0  0  0  0  0  0
   -2.8258    5.4880    0.0000 C   0  0  0  0  0  0  0  0  0  0  0  0
   -1.3573    5.1783    0.0000 C   0  0  0  0  0  0  0  0  0  0  0  0
   -0.8920    3.7523    0.0000 C   0  0  0  0  0  0  0  0  0  0  0  0
   -1.8953    2.6360    0.0000 C   0  0  0  0  0  0  0  0  0  0  0  0
   -3.3638    2.9458    0.0000 C   0  0  0  0  0  0  0  0  0  0  0  0
   -1.4300    1.2100    0.0000 C   0  0  1  0  0  0  0  0  0  0  0  0
   -2.3100    0.0000    0.0000 C   0  0  0  0  0  0  0  0  0  0  0  0
   -1.4300   -1.2100    0.0000 C   0  0  0  0  0  0  0  0  0  0  0  0
    0.0000   -0.7500    0.0000 C   0  0  0  0  0  0  0  0  0  0  0  0
    1.4300   -1.2100    0.0000 C   0  0  0  0  0  0  0  0  0  0  0  0
    2.3100    0.0000    0.0000 N   0  0  0  0  0  0  0  0  0  0  0  0
    1.4300    1.2100    0.0000 C   0  0  0  0  0  0  0  0  0  0  0  0
    0.0000    0.7500    0.0000 N   0  0  0  0  0  0  0  0  0  0  0  0
    3.8100   -0.0000    0.0000 O   0  0  0  0  0  0  0  0  0  0  0  0
    0.5755    3.4420    0.0000 F   0  0  0  0  0  0  0  0  0  0  0  0
   -3.2911    6.9141    0.0000 C   0  0  0  0  0  0  0  0  0  0  0  0
   -3.7564    8.3401    0.0000 N   0  0  0  0  0  0  0  0  0  0  0  0
  1  2  2  0  0  0  0 
  2  3  1  0  0  0  0 
  3  4  2  0  0  0  0 
  4  5  1  0  0  0  0 
  5  6  2  0  0  0  0 
  1  6  1  0  0  0  0 
  7  5  1  6  0  0  0 
  7  8  1  0  0  0  0 
  8  9  1  0  0  0  0 
  9 10  1  0  0  0  0 
 10 11  2  0  0  0  0 
 11 12  1  0  0  0  0 
 12 13  2  0  0  0  0 
 13 14  1  0  0  0  0 
 10 14  1  0  0  0  0 
  7 14  1  0  0  0  0 
 12 15  1  0  0  0  0 
  4 16  1  0  0  0  0 
  2 17  1  0  0  0  0 
 17 18  3  0  0  0  0 
M  CHG  1  12   1
M  CHG  1  15  -1
M  END
> <Rank>
1

> <Priority_score>
1.9500000000000002

> <Reaction_type>
N-oxidation

> <Parent_ID>
1

> <Parent_InChI>
InChI=1S/C13H10FN3/c14-12-5-9(6-15)1-3-11(12)13-4-2-10-7-16-8-17(10)13/h1,3,5,7-8,13H,2,4H2/t13-/m1/s1

> <Parent_SMILES>
C1([H])=C(C([H])=C(C(=C1[H])[C@@]2([H])C([H])([H])C([H])([H])C3=C([H])N=C([H])N32)F)C#N

$$$$

  CDK     1104240440

 18 20  0  0  0  0  0  0  0  0999 V2000
   -3.8291    4.3718    0.0000 C   0  0  0  0  0  0  0  0  0  0  0  0
   -2.8258    5.4880    0.0000 C   0  0  0  0  0  0  0  0  0  0  0  0
   -1.3573    5.1783    0.0000 C   0  0  0  0  0  0  0  0  0  0  0  0
   -0.8920    3.7523    0.0000 C   0  0  0  0  0  0  0  0  0  0  0  0
   -1.8953    2.6360    0.0000 C   0  0  0  0  0  0  0  0  0  0  0  0
   -3.3638    2.9458    0.0000 C   0  0  0  0  0  0  0  0  0  0  0  0
   -1.4300    1.2100    0.0000 C   0  0  1  0  0  0  0  0  0  0  0  0
   -2.3100    0.0000    0.0000 C   0  0  0  0  0  0  0  0  0  0  0  0
   -1.4300   -1.2100    0.0000 C   0  0  0  0  0  0  0  0  0  0  0  0
    0.0000   -0.7500    0.0000 C   0  0  0  0  0  0  0  0  0  0  0  0
    1.4300   -1.2100    0.0000 C   0  0  0  0  0  0  0  0  0  0  0  0
    2.3100    0.0000    0.0000 N   0  0  0  0  0  0  0  0  0  0  0  0
    1.4300    1.2100    0.0000 C   0  0  0  0  0  0  0  0  0  0  0  0
    0.0000    0.7500    0.0000 N   0  0  0  0  0  0  0  0  0  0  0  0
    1.8953   -2.6360    0.0000 O   0  0  0  0  0  0  0  0  0  0  0  0
    0.5755    3.4420    0.0000 F   0  0  0  0  0  0  0  0  0  0  0  0
   -3.2911    6.9141    0.0000 C   0  0  0  0  0  0  0  0  0  0  0  0
   -3.7564    8.3401    0.0000 N   0  0  0  0  0  0  0  0  0  0  0  0
  1  2  2  0  0  0  0 
  2  3  1  0  0  0  0 
  3  4  2  0  0  0  0 
  4  5  1  0  0  0  0 
  5  6  2  0  0  0  0 
  1  6  1  0  0  0  0 
  7  5  1  6  0  0  0 
  7  8  1  0  0  0  0 
  8  9  1  0  0  0  0 
  9 10  1  0  0  0  0 
 10 11  2  0  0  0  0 
 11 12  1  0  0  0  0 
 12 13  2  0  0  0  0 
 13 14  1  0  0  0  0 
  7 14  1  0  0  0  0 
 10 14  1  0  0  0  0 
 11 15  1  0  0  0  0 
  4 16  1  0  0  0  0 
  2 17  1  0  0  0  0 
 17 18  3  0  0  0  0 
M  END
> <Rank>
2

> <Priority_score>
1.08

> <Reaction_type>
aromatic hydroxylation

> <Parent_ID>
1

> <Parent_InChI>
InChI=1S/C13H10FN3/c14-12-5-9(6-15)1-3-11(12)13-4-2-10-7-16-8-17(10)13/h1,3,5,7-8,13H,2,4H2/t13-/m1/s1

> <Parent_SMILES>
C1([H])=C(C([H])=C(C(=C1[H])[C@@]2([H])C([H])([H])C([H])([H])C3=C([H])N=C([H])N32)F)C#N

$$$$
