
  CDK     1104240429

 17 19  0  0  0  0  0  0  0  0999 V2000
   -2.3800    0.6200    0.0000 C   0  0  0  0  0  0  0  0  0  0  0  0
   -2.3800   -0.8800    0.0000 C   0  0  0  0  0  0  0  0  0  0  0  0
   -1.0800   -1.6200    0.0000 C   0  0  0  0  0  0  0  0  0  0  0  0
    0.2200   -0.8800    0.0000 C   0  0  0  0  0  0  0  0  0  0  0  0
    0.2200    0.6200    0.0000 C   0  0  0  0  0  0  0  0  0  0  0  0
   -1.0800    1.3800    0.0000 C   0  0  0  0  0  0  0  0  0  0  0  0
    1.5200    1.3800    0.0000 C   0  0  0  0  0  0  0  0  0  0  0  0
    2.8100    0.6200    0.0000 C   0  0  0  0  0  0  0  0  0  0  0  0
    2.8100   -0.8800    0.0000 C   0  0  0  0  0  0  0  0  0  0  0  0
    1.5200   -1.6200    0.0000 N   0  0  0  0  0  0  0  0  0  0  0  0
    1.5225    2.8800    0.0000 N   0  0  0  0  0  0  0  0  0  0  0  0
    0.2238    3.6322    0.0000 C   0  0  0  0  0  0  0  0  0  0  0  0
    0.2263    5.1322    0.0000 C   0  0  0  0  0  0  0  0  0  0  0  0
    1.5276    5.8800    0.0000 N   0  0  0  0  0  0  0  0  0  0  0  0
    2.8263    5.1278    0.0000 C   0  0  0  0  0  0  0  0  0  0  0  0
    2.8238    3.6278    0.0000 C   0  0  0  0  0  0  0  0  0  0  0  0
   -3.6767   -1.6340    0.0000 Cl  0  0  0  0  0  0  0  0  0  0  0  0
  1  2  2  0  0  0  0 
  2  3  1  0  0  0  0 
  3  4  2  0  0  0  0 
  4  5  1  0  0  0  0 
  5  6  2  0  0  0  0 
  1  6  1  0  0  0  0 
  5  7  1  0  0  0  0 
  7  8  2  0  0  0  0 
  8  9  1  0  0  0  0 
  9 10  2  0  0  0  0 
  4 10  1  0  0  0  0 
  7 11  1  0  0  0  0 
 11 12  1  0  0  0  0 
 12 13  1  0  0  0  0 
 13 14  1  0  0  0  0 
 14 15  1  0  0  0  0 
 15 16  1  0  0  0  0 
 11 16  1  0  0  0  0 
  2 17  1  0  0  0  0 
M  END
> <Rank>
1

> <Priority_score>
1.18

> <Reaction_type>
N-dealkylation

> <Parent_ID>
1

> <Parent_InChI>
InChI=1S/C29H32Cl2N6/c30-22-2-4-24-26(20-22)32-8-6-28(24)36-16-12-34(13-17-36)10-1-11-35-14-18-37(19-15-35)29-7-9-33-27-21-23(31)3-5-25(27)29/h2-9,20-21H,1,10-19H2

> <Parent_SMILES>
C([H])([H])(C([H])([H])N1C([H])([H])C([H])([H])N(C([H])([H])C1([H])[H])C2=C([H])C([H])=NC3=C([H])C(=C([H])C([H])=C32)Cl)C([H])([H])N4C([H])([H])C([H])([H])N(C([H])([H])C4([H])[H])C5=C([H])C([H])=NC6=C([H])C(=C([H])C([H])=C65)Cl

$$$$

  CDK     1104240429

 38 43  0  0  0  0  0  0  0  0999 V2000
    2.8319    8.1295    0.0000 C   0  0  0  0  0  0  0  0  0  0  0  0
    1.5316    7.3817    0.0000 C   0  0  0  0  0  0  0  0  0  0  0  0
    1.5290    5.8817    0.0000 N   0  0  0  0  0  0  0  0  0  0  0  0
    0.2281    5.1332    0.0000 C   0  0  0  0  0  0  0  0  0  0  0  0
    0.2249    3.6324    0.0000 C   0  0  0  0  0  0  0  0  0  0  0  0
    1.5225    2.8800    0.0000 N   0  0  0  0  0  0  0  0  0  0  0  0
    2.8234    3.6284    0.0000 C   0  0  0  0  0  0  0  0  0  0  0  0
    2.8267    5.1293    0.0000 C   0  0  0  0  0  0  0  0  0  0  0  0
    1.5200    1.3800    0.0000 C   0  0  0  0  0  0  0  0  0  0  0  0
    2.8100    0.6200    0.0000 C   0  0  0  0  0  0  0  0  0  0  0  0
    2.8100   -0.8800    0.0000 C   0  0  0  0  0  0  0  0  0  0  0  0
    1.5200   -1.6200    0.0000 N   0  0  0  0  0  0  0  0  0  0  0  0
    0.2200   -0.8800    0.0000 C   0  0  0  0  0  0  0  0  0  0  0  0
   -1.0800   -1.6200    0.0000 C   0  0  0  0  0  0  0  0  0  0  0  0
   -2.3800   -0.8800    0.0000 C   0  0  0  0  0  0  0  0  0  0  0  0
   -2.3800    0.6200    0.0000 C   0  0  0  0  0  0  0  0  0  0  0  0
   -1.0800    1.3800    0.0000 C   0  0  0  0  0  0  0  0  0  0  0  0
    0.2200    0.6200    0.0000 C   0  0  0  0  0  0  0  0  0  0  0  0
   -3.6767   -1.6340    0.0000 Cl  0  0  0  0  0  0  0  0  0  0  0  0
    2.8344    9.6295    0.0000 C   0  0  0  0  0  0  0  0  0  0  0  0
    4.1347   10.3773    0.0000 N   0  0  0  0  0  0  0  0  0  0  0  0
    3.1717   11.5284    0.0000 C   0  0  0  0  0  0  0  0  0  0  0  0
    3.6872   12.9370    0.0000 C   0  0  0  0  0  0  0  0  0  0  0  0
    5.1658   13.1945    0.0000 N   0  0  0  0  0  0  0  0  0  0  0  0
    6.1288   12.0434    0.0000 C   0  0  0  0  0  0  0  0  0  0  0  0
    5.6133   10.6348    0.0000 C   0  0  0  0  0  0  0  0  0  0  0  0
    5.6814   14.6031    0.0000 C   0  0  0  0  0  0  0  0  0  0  0  0
    4.7292   15.7586    0.0000 C   0  0  0  0  0  0  0  0  0  0  0  0
    5.2424   17.1681    0.0000 C   0  0  0  0  0  0  0  0  0  0  0  0
    6.7077   17.4221    0.0000 N   0  0  0  0  0  0  0  0  0  0  0  0
    7.6761   16.2820    0.0000 C   0  0  0  0  0  0  0  0  0  0  0  0
    9.1508   16.5326    0.0000 C   0  0  0  0  0  0  0  0  0  0  0  0
   10.1192   15.3925    0.0000 C   0  0  0  0  0  0  0  0  0  0  0  0
    9.6060   13.9830    0.0000 C   0  0  0  0  0  0  0  0  0  0  0  0
    8.1245   13.7136    0.0000 C   0  0  0  0  0  0  0  0  0  0  0  0
    7.1629   14.8725    0.0000 C   0  0  0  0  0  0  0  0  0  0  0  0
   11.5956   15.6573    0.0000 Cl  0  0  0  0  0  0  0  0  0  0  0  0
    4.6450    8.9668    0.0000 O   0  0  0  0  0  0  0  0  0  0  0  0
  1  2  1  0  0  0  0 
  2  3  1  0  0  0  0 
  3  4  1  0  0  0  0 
  4  5  1  0  0  0  0 
  5  6  1  0  0  0  0 
  6  7  1  0  0  0  0 
  7  8  1  0  0  0  0 
  3  8  1  0  0  0  0 
  6  9  1  0  0  0  0 
  9 10  2  0  0  0  0 
 10 11  1  0  0  0  0 
 11 12  2  0  0  0  0 
 12 13  1  0  0  0  0 
 13 14  2  0  0  0  0 
 14 15  1  0  0  0  0 
 15 16  2  0  0  0  0 
 16 17  1  0  0  0  0 
 17 18  2  0  0  0  0 
 13 18  1  0  0  0  0 
  9 18  1  0  0  0  0 
 15 19  1  0  0  0  0 
  1 20  1  0  0  0  0 
 20 21  1  0  0  0  0 
 21 22  1  0  0  0  0 
 22 23  1  0  0  0  0 
 23 24  1  0  0  0  0 
 24 25  1  0  0  0  0 
 25 26  1  0  0  0  0 
 21 26  1  0  0  0  0 
 24 27  1  0  0  0  0 
 27 28  2  0  0  0  0 
 28 29  1  0  0  0  0 
 29 30  2  0  0  0  0 
 30 31  1  0  0  0  0 
 31 32  2  0  0  0  0 
 32 33  1  0  0  0  0 
 33 34  2  0  0  0  0 
 34 35  1  0  0  0  0 
 35 36  2  0  0  0  0 
 31 36  1  0  0  0  0 
 27 36  1  0  0  0  0 
 33 37  1  0  0  0  0 
 21 38  1  0  0  0  0 
M  CHG  1  21   1
M  CHG  1  38  -1
M  END
> <Rank>
1

> <Priority_score>
1.18

> <Reaction_type>
N-oxidation

> <Parent_ID>
1

> <Parent_InChI>
InChI=1S/C29H32Cl2N6/c30-22-2-4-24-26(20-22)32-8-6-28(24)36-16-12-34(13-17-36)10-1-11-35-14-18-37(19-15-35)29-7-9-33-27-21-23(31)3-5-25(27)29/h2-9,20-21H,1,10-19H2

> <Parent_SMILES>
C([H])([H])(C([H])([H])N1C([H])([H])C([H])([H])N(C([H])([H])C1([H])[H])C2=C([H])C([H])=NC3=C([H])C(=C([H])C([H])=C32)Cl)C([H])([H])N4C([H])([H])C([H])([H])N(C([H])([H])C4([H])[H])C5=C([H])C([H])=NC6=C([H])C(=C([H])C([H])=C65)Cl

$$$$

  CDK     1104240429

 38 43  0  0  0  0  0  0  0  0999 V2000
   -2.3800    0.6200    0.0000 C   0  0  0  0  0  0  0  0  0  0  0  0
   -2.3800   -0.8800    0.0000 C   0  0  0  0  0  0  0  0  0  0  0  0
   -1.0800   -1.6200    0.0000 C   0  0  0  0  0  0  0  0  0  0  0  0
    0.2200   -0.8800    0.0000 C   0  0  0  0  0  0  0  0  0  0  0  0
    0.2200    0.6200    0.0000 C   0  0  0  0  0  0  0  0  0  0  0  0
   -1.0800    1.3800    0.0000 C   0  0  0  0  0  0  0  0  0  0  0  0
    1.5200    1.3800    0.0000 C   0  0  0  0  0  0  0  0  0  0  0  0
    2.8100    0.6200    0.0000 C   0  0  0  0  0  0  0  0  0  0  0  0
    2.8100   -0.8800    0.0000 C   0  0  0  0  0  0  0  0  0  0  0  0
    1.5200   -1.6200    0.0000 N   0  0  0  0  0  0  0  0  0  0  0  0
    1.5225    2.8800    0.0000 N   0  0  0  0  0  0  0  0  0  0  0  0
    2.8234    3.6284    0.0000 C   0  0  0  0  0  0  0  0  0  0  0  0
    2.8267    5.1293    0.0000 C   0  0  0  0  0  0  0  0  0  0  0  0
    1.5290    5.8817    0.0000 N   0  0  0  0  0  0  0  0  0  0  0  0
    1.5316    7.3817    0.0000 C   0  0  0  0  0  0  0  0  0  0  0  0
    2.8319    8.1295    0.0000 C   0  0  0  0  0  0  0  0  0  0  0  0
    2.8344    9.6295    0.0000 C   0  0  0  0  0  0  0  0  0  0  0  0
    4.1347   10.3773    0.0000 N   0  0  0  0  0  0  0  0  0  0  0  0
    5.4333    9.6249    0.0000 C   0  0  0  0  0  0  0  0  0  0  0  0
    6.7347   10.3725    0.0000 C   0  0  0  0  0  0  0  0  0  0  0  0
    6.7375   11.8725    0.0000 N   0  0  0  0  0  0  0  0  0  0  0  0
    5.4388   12.6249    0.0000 C   0  0  0  0  0  0  0  0  0  0  0  0
    4.1375   11.8773    0.0000 C   0  0  0  0  0  0  0  0  0  0  0  0
    8.0378   12.6203    0.0000 C   0  0  0  0  0  0  0  0  0  0  0  0
    8.0509   14.1175    0.0000 C   0  0  0  0  0  0  0  0  0  0  0  0
    9.3500   14.8675    0.0000 C   0  0  0  0  0  0  0  0  0  0  0  0
   10.6358   14.1203    0.0000 N   0  0  0  0  0  0  0  0  0  0  0  0
   10.6450   12.6244    0.0000 C   0  0  0  0  0  0  0  0  0  0  0  0
   11.9358   11.8686    0.0000 C   0  0  0  0  0  0  0  0  0  0  0  0
   11.9450   10.3728    0.0000 C   0  0  0  0  0  0  0  0  0  0  0  0
   10.6459    9.6228    0.0000 C   0  0  0  0  0  0  0  0  0  0  0  0
    9.3378   10.3686    0.0000 C   0  0  0  0  0  0  0  0  0  0  0  0
    9.3459   11.8744    0.0000 C   0  0  0  0  0  0  0  0  0  0  0  0
   13.2463    9.6268    0.0000 Cl  0  0  0  0  0  0  0  0  0  0  0  0
    1.5366   10.3817    0.0000 O   0  0  0  0  0  0  0  0  0  0  0  0
    0.2281    5.1332    0.0000 C   0  0  0  0  0  0  0  0  0  0  0  0
    0.2249    3.6324    0.0000 C   0  0  0  0  0  0  0  0  0  0  0  0
   -3.6767   -1.6340    0.0000 Cl  0  0  0  0  0  0  0  0  0  0  0  0
  1  2  2  0  0  0  0 
  2  3  1  0  0  0  0 
  3  4  2  0  0  0  0 
  4  5  1  0  0  0  0 
  5  6  2  0  0  0  0 
  1  6  1  0  0  0  0 
  5  7  1  0  0  0  0 
  7  8  2  0  0  0  0 
  8  9  1  0  0  0  0 
  9 10  2  0  0  0  0 
  4 10  1  0  0  0  0 
  7 11  1  0  0  0  0 
 11 12  1  0  0  0  0 
 12 13  1  0  0  0  0 
 13 14  1  0  0  0  0 
 14 15  1  0  0  0  0 
 15 16  1  0  0  0  0 
 16 17  1  0  0  0  0 
 17 18  1  0  0  0  0 
 18 19  1  0  0  0  0 
 19 20  1  0  0  0  0 
 20 21  1  0  0  0  0 
 21 22  1  0  0  0  0 
 22 23  1  0  0  0  0 
 18 23  1  0  0  0  0 
 21 24  1  0  0  0  0 
 24 25  2  0  0  0  0 
 25 26  1  0  0  0  0 
 26 27  2  0  0  0  0 
 27 28  1  0  0  0  0 
 28 29  2  0  0  0  0 
 29 30  1  0  0  0  0 
 30 31  2  0  0  0  0 
 31 32  1  0  0  0  0 
 32 33  2  0  0  0  0 
 28 33  1  0  0  0  0 
 24 33  1  0  0  0  0 
 30 34  1  0  0  0  0 
 17 35  1  0  0  0  0 
 14 36  1  0  0  0  0 
 36 37  1  0  0  0  0 
 11 37  1  0  0  0  0 
  2 38  1  0  0  0  0 
M  END
> <Rank>
1

> <Priority_score>
1.18

> <Reaction_type>
aliphatic hydroxylation

> <Parent_ID>
1

> <Parent_InChI>
InChI=1S/C29H32Cl2N6/c30-22-2-4-24-26(20-22)32-8-6-28(24)36-16-12-34(13-17-36)10-1-11-35-14-18-37(19-15-35)29-7-9-33-27-21-23(31)3-5-25(27)29/h2-9,20-21H,1,10-19H2

> <Parent_SMILES>
C([H])([H])(C([H])([H])N1C([H])([H])C([H])([H])N(C([H])([H])C1([H])[H])C2=C([H])C([H])=NC3=C([H])C(=C([H])C([H])=C32)Cl)C([H])([H])N4C([H])([H])C([H])([H])N(C([H])([H])C4([H])[H])C5=C([H])C([H])=NC6=C([H])C(=C([H])C([H])=C65)Cl

$$$$

  CDK     1104240429

 21 23  0  0  0  0  0  0  0  0999 V2000
    2.8319    8.1295    0.0000 C   0  0  0  0  0  0  0  0  0  0  0  0
    1.5316    7.3817    0.0000 C   0  0  0  0  0  0  0  0  0  0  0  0
    1.5290    5.8817    0.0000 N   0  0  0  0  0  0  0  0  0  0  0  0
    0.2281    5.1332    0.0000 C   0  0  0  0  0  0  0  0  0  0  0  0
    0.2249    3.6324    0.0000 C   0  0  0  0  0  0  0  0  0  0  0  0
    1.5225    2.8800    0.0000 N   0  0  0  0  0  0  0  0  0  0  0  0
    2.8234    3.6284    0.0000 C   0  0  0  0  0  0  0  0  0  0  0  0
    2.8267    5.1293    0.0000 C   0  0  0  0  0  0  0  0  0  0  0  0
    1.5200    1.3800    0.0000 C   0  0  0  0  0  0  0  0  0  0  0  0
    2.8100    0.6200    0.0000 C   0  0  0  0  0  0  0  0  0  0  0  0
    2.8100   -0.8800    0.0000 C   0  0  0  0  0  0  0  0  0  0  0  0
    1.5200   -1.6200    0.0000 N   0  0  0  0  0  0  0  0  0  0  0  0
    0.2200   -0.8800    0.0000 C   0  0  0  0  0  0  0  0  0  0  0  0
   -1.0800   -1.6200    0.0000 C   0  0  0  0  0  0  0  0  0  0  0  0
   -2.3800   -0.8800    0.0000 C   0  0  0  0  0  0  0  0  0  0  0  0
   -2.3800    0.6200    0.0000 C   0  0  0  0  0  0  0  0  0  0  0  0
   -1.0800    1.3800    0.0000 C   0  0  0  0  0  0  0  0  0  0  0  0
    0.2200    0.6200    0.0000 C   0  0  0  0  0  0  0  0  0  0  0  0
   -3.6767   -1.6340    0.0000 Cl  0  0  0  0  0  0  0  0  0  0  0  0
    2.8344    9.6295    0.0000 C   0  0  0  0  0  0  0  0  0  0  0  0
    4.1347   10.3773    0.0000 O   0  0  0  0  0  0  0  0  0  0  0  0
  1  2  1  0  0  0  0 
  2  3  1  0  0  0  0 
  3  4  1  0  0  0  0 
  4  5  1  0  0  0  0 
  5  6  1  0  0  0  0 
  6  7  1  0  0  0  0 
  7  8  1  0  0  0  0 
  3  8  1  0  0  0  0 
  6  9  1  0  0  0  0 
  9 10  2  0  0  0  0 
 10 11  1  0  0  0  0 
 11 12  2  0  0  0  0 
 12 13  1  0  0  0  0 
 13 14  2  0  0  0  0 
 14 15  1  0  0  0  0 
 15 16  2  0  0  0  0 
 16 17  1  0  0  0  0 
 17 18  2  0  0  0  0 
 13 18  1  0  0  0  0 
  9 18  1  0  0  0  0 
 15 19  1  0  0  0  0 
  1 20  1  0  0  0  0 
 20 21  2  0  0  0  0 
M  END
> <Rank>
1

> <Priority_score>
1.18

> <Reaction_type>
N-dealkylation

> <Parent_ID>
1

> <Parent_InChI>
InChI=1S/C29H32Cl2N6/c30-22-2-4-24-26(20-22)32-8-6-28(24)36-16-12-34(13-17-36)10-1-11-35-14-18-37(19-15-35)29-7-9-33-27-21-23(31)3-5-25(27)29/h2-9,20-21H,1,10-19H2

> <Parent_SMILES>
C([H])([H])(C([H])([H])N1C([H])([H])C([H])([H])N(C([H])([H])C1([H])[H])C2=C([H])C([H])=NC3=C([H])C(=C([H])C([H])=C32)Cl)C([H])([H])N4C([H])([H])C([H])([H])N(C([H])([H])C4([H])[H])C5=C([H])C([H])=NC6=C([H])C(=C([H])C([H])=C65)Cl

$$$$

  CDK     1104240429

 35 39  0  0  0  0  0  0  0  0999 V2000
    5.4285    8.1234    0.0000 C   0  0  0  0  0  0  0  0  0  0  0  0
    4.1282    7.3756    0.0000 C   0  0  0  0  0  0  0  0  0  0  0  0
    4.1257    5.8756    0.0000 N   0  0  0  0  0  0  0  0  0  0  0  0
    2.8254    5.1278    0.0000 C   0  0  0  0  0  0  0  0  0  0  0  0
    2.8228    3.6278    0.0000 C   0  0  0  0  0  0  0  0  0  0  0  0
    1.5225    2.8800    0.0000 N   0  0  0  0  0  0  0  0  0  0  0  0
    1.5200    1.3800    0.0000 C   0  0  0  0  0  0  0  0  0  0  0  0
    2.8100    0.6200    0.0000 C   0  0  0  0  0  0  0  0  0  0  0  0
    2.8100   -0.8800    0.0000 C   0  0  0  0  0  0  0  0  0  0  0  0
    1.5200   -1.6200    0.0000 N   0  0  0  0  0  0  0  0  0  0  0  0
    0.2200   -0.8800    0.0000 C   0  0  0  0  0  0  0  0  0  0  0  0
   -1.0800   -1.6200    0.0000 C   0  0  0  0  0  0  0  0  0  0  0  0
   -2.3800   -0.8800    0.0000 C   0  0  0  0  0  0  0  0  0  0  0  0
   -2.3800    0.6200    0.0000 C   0  0  0  0  0  0  0  0  0  0  0  0
   -1.0800    1.3800    0.0000 C   0  0  0  0  0  0  0  0  0  0  0  0
    0.2200    0.6200    0.0000 C   0  0  0  0  0  0  0  0  0  0  0  0
   -3.6767   -1.6340    0.0000 Cl  0  0  0  0  0  0  0  0  0  0  0  0
    5.4310    9.6234    0.0000 C   0  0  0  0  0  0  0  0  0  0  0  0
    6.7313   10.3712    0.0000 N   0  0  0  0  0  0  0  0  0  0  0  0
    8.0299    9.6188    0.0000 C   0  0  0  0  0  0  0  0  0  0  0  0
    9.3313   10.3664    0.0000 C   0  0  0  0  0  0  0  0  0  0  0  0
    9.3341   11.8664    0.0000 N   0  0  0  0  0  0  0  0  0  0  0  0
    8.0355   12.6188    0.0000 C   0  0  0  0  0  0  0  0  0  0  0  0
    6.7341   11.8712    0.0000 C   0  0  0  0  0  0  0  0  0  0  0  0
   10.6344   12.6142    0.0000 C   0  0  0  0  0  0  0  0  0  0  0  0
   10.6476   14.1114    0.0000 C   0  0  0  0  0  0  0  0  0  0  0  0
   11.9466   14.8614    0.0000 C   0  0  0  0  0  0  0  0  0  0  0  0
   13.2325   14.1142    0.0000 N   0  0  0  0  0  0  0  0  0  0  0  0
   13.2416   12.6184    0.0000 C   0  0  0  0  0  0  0  0  0  0  0  0
   14.5325   11.8626    0.0000 C   0  0  0  0  0  0  0  0  0  0  0  0
   14.5416   10.3667    0.0000 C   0  0  0  0  0  0  0  0  0  0  0  0
   13.2426    9.6167    0.0000 C   0  0  0  0  0  0  0  0  0  0  0  0
   11.9344   10.3626    0.0000 C   0  0  0  0  0  0  0  0  0  0  0  0
   11.9426   11.8684    0.0000 C   0  0  0  0  0  0  0  0  0  0  0  0
   15.8429    9.6207    0.0000 Cl  0  0  0  0  0  0  0  0  0  0  0  0
  1  2  1  0  0  0  0 
  2  3  1  0  0  0  0 
  3  4  1  0  0  0  0 
  4  5  1  0  0  0  0 
  5  6  1  0  0  0  0 
  6  7  1  0  0  0  0 
  7  8  2  0  0  0  0 
  8  9  1  0  0  0  0 
  9 10  2  0  0  0  0 
 10 11  1  0  0  0  0 
 11 12  2  0  0  0  0 
 12 13  1  0  0  0  0 
 13 14  2  0  0  0  0 
 14 15  1  0  0  0  0 
 15 16  2  0  0  0  0 
  7 16  1  0  0  0  0 
 11 16  1  0  0  0  0 
 13 17  1  0  0  0  0 
  1 18  1  0  0  0  0 
 18 19  1  0  0  0  0 
 19 20  1  0  0  0  0 
 20 21  1  0  0  0  0 
 21 22  1  0  0  0  0 
 22 23  1  0  0  0  0 
 23 24  1  0  0  0  0 
 19 24  1  0  0  0  0 
 22 25  1  0  0  0  0 
 25 26  2  0  0  0  0 
 26 27  1  0  0  0  0 
 27 28  2  0  0  0  0 
 28 29  1  0  0  0  0 
 29 30  2  0  0  0  0 
 30 31  1  0  0  0  0 
 31 32  2  0  0  0  0 
 32 33  1  0  0  0  0 
 33 34  2  0  0  0  0 
 29 34  1  0  0  0  0 
 25 34  1  0  0  0  0 
 31 35  1  0  0  0  0 
M  END
> <Rank>
1

> <Priority_score>
1.18

> <Reaction_type>
N-dealkylation of piperazine

> <Parent_ID>
1

> <Parent_InChI>
InChI=1S/C29H32Cl2N6/c30-22-2-4-24-26(20-22)32-8-6-28(24)36-16-12-34(13-17-36)10-1-11-35-14-18-37(19-15-35)29-7-9-33-27-21-23(31)3-5-25(27)29/h2-9,20-21H,1,10-19H2

> <Parent_SMILES>
C([H])([H])(C([H])([H])N1C([H])([H])C([H])([H])N(C([H])([H])C1([H])[H])C2=C([H])C([H])=NC3=C([H])C(=C([H])C([H])=C32)Cl)C([H])([H])N4C([H])([H])C([H])([H])N(C([H])([H])C4([H])[H])C5=C([H])C([H])=NC6=C([H])C(=C([H])C([H])=C65)Cl

$$$$

  CDK     1104240429

 37 42  0  0  0  0  0  0  0  0999 V2000
    2.8319    8.1295    0.0000 C   0  0  0  0  0  0  0  0  0  0  0  0
    1.5316    7.3817    0.0000 C   0  0  0  0  0  0  0  0  0  0  0  0
    1.5290    5.8817    0.0000 N   0  0  0  0  0  0  0  0  0  0  0  0
    0.2281    5.1332    0.0000 C   0  0  0  0  0  0  0  0  0  0  0  0
    0.2249    3.6324    0.0000 C   0  0  0  0  0  0  0  0  0  0  0  0
    1.5225    2.8800    0.0000 N   0  0  0  0  0  0  0  0  0  0  0  0
    2.8234    3.6284    0.0000 C   0  0  0  0  0  0  0  0  0  0  0  0
    2.8267    5.1293    0.0000 C   0  0  0  0  0  0  0  0  0  0  0  0
    1.5200    1.3800    0.0000 C   0  0  0  0  0  0  0  0  0  0  0  0
    2.8100    0.6200    0.0000 C   0  0  0  0  0  0  0  0  0  0  0  0
    2.8100   -0.8800    0.0000 C   0  0  0  0  0  0  0  0  0  0  0  0
    1.5200   -1.6200    0.0000 N   0  0  0  0  0  0  0  0  0  0  0  0
    0.2200   -0.8800    0.0000 C   0  0  0  0  0  0  0  0  0  0  0  0
   -1.0800   -1.6200    0.0000 C   0  0  0  0  0  0  0  0  0  0  0  0
   -2.3800   -0.8800    0.0000 C   0  0  0  0  0  0  0  0  0  0  0  0
   -2.3800    0.6200    0.0000 C   0  0  0  0  0  0  0  0  0  0  0  0
   -1.0800    1.3800    0.0000 C   0  0  0  0  0  0  0  0  0  0  0  0
    0.2200    0.6200    0.0000 C   0  0  0  0  0  0  0  0  0  0  0  0
   -3.6767   -1.6340    0.0000 Cl  0  0  0  0  0  0  0  0  0  0  0  0
    2.8344    9.6295    0.0000 C   0  0  0  0  0  0  0  0  0  0  0  0
    4.1347   10.3773    0.0000 N   0  0  0  0  0  0  0  0  0  0  0  0
    5.4333    9.6249    0.0000 C   0  0  0  0  0  0  0  0  0  0  0  0
    6.7347   10.3725    0.0000 C   0  0  0  0  0  0  0  0  0  0  0  0
    6.7375   11.8725    0.0000 N   0  0  0  0  0  0  0  0  0  0  0  0
    5.4388   12.6249    0.0000 C   0  0  0  0  0  0  0  0  0  0  0  0
    4.1375   11.8773    0.0000 C   0  0  0  0  0  0  0  0  0  0  0  0
    8.0378   12.6203    0.0000 C   0  0  0  0  0  0  0  0  0  0  0  0
    8.0509   14.1175    0.0000 C   0  0  0  0  0  0  0  0  0  0  0  0
    9.3500   14.8675    0.0000 C   0  0  0  0  0  0  0  0  0  0  0  0
   10.6358   14.1203    0.0000 N   0  0  0  0  0  0  0  0  0  0  0  0
   10.6450   12.6244    0.0000 C   0  0  0  0  0  0  0  0  0  0  0  0
   11.9358   11.8686    0.0000 C   0  0  0  0  0  0  0  0  0  0  0  0
   11.9450   10.3728    0.0000 C   0  0  0  0  0  0  0  0  0  0  0  0
   10.6459    9.6228    0.0000 C   0  0  0  0  0  0  0  0  0  0  0  0
    9.3378   10.3686    0.0000 C   0  0  0  0  0  0  0  0  0  0  0  0
    9.3459   11.8744    0.0000 C   0  0  0  0  0  0  0  0  0  0  0  0
   13.2463    9.6268    0.0000 Cl  0  0  0  0  0  0  0  0  0  0  0  0
  1  2  2  0  0  0  0 
  2  3  1  0  0  0  0 
  3  4  1  0  0  0  0 
  4  5  1  0  0  0  0 
  5  6  1  0  0  0  0 
  6  7  1  0  0  0  0 
  7  8  1  0  0  0  0 
  3  8  1  0  0  0  0 
  6  9  1  0  0  0  0 
  9 10  2  0  0  0  0 
 10 11  1  0  0  0  0 
 11 12  2  0  0  0  0 
 12 13  1  0  0  0  0 
 13 14  2  0  0  0  0 
 14 15  1  0  0  0  0 
 15 16  2  0  0  0  0 
 16 17  1  0  0  0  0 
 17 18  2  0  0  0  0 
 13 18  1  0  0  0  0 
  9 18  1  0  0  0  0 
 15 19  1  0  0  0  0 
  1 20  1  4  0  0  0 
 20 21  1  0  0  0  0 
 21 22  1  0  0  0  0 
 22 23  1  0  0  0  0 
 23 24  1  0  0  0  0 
 24 25  1  0  0  0  0 
 25 26  1  0  0  0  0 
 21 26  1  0  0  0  0 
 24 27  1  0  0  0  0 
 27 28  2  0  0  0  0 
 28 29  1  0  0  0  0 
 29 30  2  0  0  0  0 
 30 31  1  0  0  0  0 
 31 32  2  0  0  0  0 
 32 33  1  0  0  0  0 
 33 34  2  0  0  0  0 
 34 35  1  0  0  0  0 
 35 36  2  0  0  0  0 
 31 36  1  0  0  0  0 
 27 36  1  0  0  0  0 
 33 37  1  0  0  0  0 
M  END
> <Rank>
6

> <Priority_score>
0.236

> <Reaction_type>
alkyl dehydrogenation

> <Parent_ID>
1

> <Parent_InChI>
InChI=1S/C29H32Cl2N6/c30-22-2-4-24-26(20-22)32-8-6-28(24)36-16-12-34(13-17-36)10-1-11-35-14-18-37(19-15-35)29-7-9-33-27-21-23(31)3-5-25(27)29/h2-9,20-21H,1,10-19H2

> <Parent_SMILES>
C([H])([H])(C([H])([H])N1C([H])([H])C([H])([H])N(C([H])([H])C1([H])[H])C2=C([H])C([H])=NC3=C([H])C(=C([H])C([H])=C32)Cl)C([H])([H])N4C([H])([H])C([H])([H])N(C([H])([H])C4([H])[H])C5=C([H])C([H])=NC6=C([H])C(=C([H])C([H])=C65)Cl

$$$$

  CDK     1104240429

 37 42  0  0  0  0  0  0  0  0999 V2000
    2.8319    8.1295    0.0000 C   0  0  0  0  0  0  0  0  0  0  0  0
    1.5316    7.3817    0.0000 C   0  0  0  0  0  0  0  0  0  0  0  0
    1.5290    5.8817    0.0000 N   0  0  0  0  0  0  0  0  0  0  0  0
    0.2281    5.1332    0.0000 C   0  0  0  0  0  0  0  0  0  0  0  0
    0.2249    3.6324    0.0000 C   0  0  0  0  0  0  0  0  0  0  0  0
    1.5225    2.8800    0.0000 N   0  0  0  0  0  0  0  0  0  0  0  0
    2.8234    3.6284    0.0000 C   0  0  0  0  0  0  0  0  0  0  0  0
    2.8267    5.1293    0.0000 C   0  0  0  0  0  0  0  0  0  0  0  0
    1.5200    1.3800    0.0000 C   0  0  0  0  0  0  0  0  0  0  0  0
    2.8100    0.6200    0.0000 C   0  0  0  0  0  0  0  0  0  0  0  0
    2.8100   -0.8800    0.0000 C   0  0  0  0  0  0  0  0  0  0  0  0
    1.5200   -1.6200    0.0000 N   0  0  0  0  0  0  0  0  0  0  0  0
    0.2200   -0.8800    0.0000 C   0  0  0  0  0  0  0  0  0  0  0  0
   -1.0800   -1.6200    0.0000 C   0  0  0  0  0  0  0  0  0  0  0  0
   -2.3800   -0.8800    0.0000 C   0  0  0  0  0  0  0  0  0  0  0  0
   -2.3800    0.6200    0.0000 C   0  0  0  0  0  0  0  0  0  0  0  0
   -1.0800    1.3800    0.0000 C   0  0  0  0  0  0  0  0  0  0  0  0
    0.2200    0.6200    0.0000 C   0  0  0  0  0  0  0  0  0  0  0  0
   -3.6767   -1.6340    0.0000 Cl  0  0  0  0  0  0  0  0  0  0  0  0
    2.8344    9.6295    0.0000 C   0  0  0  0  0  0  0  0  0  0  0  0
    4.1347   10.3773    0.0000 N   0  0  0  0  0  0  0  0  0  0  0  0
    5.4333    9.6249    0.0000 C   0  0  0  0  0  0  0  0  0  0  0  0
    6.7347   10.3725    0.0000 C   0  0  0  0  0  0  0  0  0  0  0  0
    6.7375   11.8725    0.0000 N   0  0  0  0  0  0  0  0  0  0  0  0
    5.4388   12.6249    0.0000 C   0  0  0  0  0  0  0  0  0  0  0  0
    4.1375   11.8773    0.0000 C   0  0  0  0  0  0  0  0  0  0  0  0
    8.0378   12.6203    0.0000 C   0  0  0  0  0  0  0  0  0  0  0  0
    8.0509   14.1175    0.0000 C   0  0  0  0  0  0  0  0  0  0  0  0
    9.3500   14.8675    0.0000 C   0  0  0  0  0  0  0  0  0  0  0  0
   10.6358   14.1203    0.0000 N   0  0  0  0  0  0  0  0  0  0  0  0
   10.6450   12.6244    0.0000 C   0  0  0  0  0  0  0  0  0  0  0  0
   11.9358   11.8686    0.0000 C   0  0  0  0  0  0  0  0  0  0  0  0
   11.9450   10.3728    0.0000 C   0  0  0  0  0  0  0  0  0  0  0  0
   10.6459    9.6228    0.0000 C   0  0  0  0  0  0  0  0  0  0  0  0
    9.3378   10.3686    0.0000 C   0  0  0  0  0  0  0  0  0  0  0  0
    9.3459   11.8744    0.0000 C   0  0  0  0  0  0  0  0  0  0  0  0
   13.2463    9.6268    0.0000 Cl  0  0  0  0  0  0  0  0  0  0  0  0
  1  2  1  4  0  0  0 
  2  3  2  0  0  0  0 
  3  4  1  0  0  0  0 
  4  5  1  0  0  0  0 
  5  6  1  0  0  0  0 
  6  7  1  0  0  0  0 
  7  8  1  0  0  0  0 
  3  8  1  0  0  0  0 
  6  9  1  0  0  0  0 
  9 10  2  0  0  0  0 
 10 11  1  0  0  0  0 
 11 12  2  0  0  0  0 
 12 13  1  0  0  0  0 
 13 14  2  0  0  0  0 
 14 15  1  0  0  0  0 
 15 16  2  0  0  0  0 
 16 17  1  0  0  0  0 
 17 18  2  0  0  0  0 
 13 18  1  0  0  0  0 
  9 18  1  0  0  0  0 
 15 19  1  0  0  0  0 
  1 20  1  0  0  0  0 
 20 21  1  0  0  0  0 
 21 22  1  0  0  0  0 
 22 23  1  0  0  0  0 
 23 24  1  0  0  0  0 
 24 25  1  0  0  0  0 
 25 26  1  0  0  0  0 
 21 26  1  0  0  0  0 
 24 27  1  0  0  0  0 
 27 28  2  0  0  0  0 
 28 29  1  0  0  0  0 
 29 30  2  0  0  0  0 
 30 31  1  0  0  0  0 
 31 32  2  0  0  0  0 
 32 33  1  0  0  0  0 
 33 34  2  0  0  0  0 
 34 35  1  0  0  0  0 
 35 36  2  0  0  0  0 
 31 36  1  0  0  0  0 
 27 36  1  0  0  0  0 
 33 37  1  0  0  0  0 
M  CHG  1   3   1
M  END
> <Rank>
6

> <Priority_score>
0.236

> <Reaction_type>
dehydration of N-C bond

> <Parent_ID>
1

> <Parent_InChI>
InChI=1S/C29H32Cl2N6/c30-22-2-4-24-26(20-22)32-8-6-28(24)36-16-12-34(13-17-36)10-1-11-35-14-18-37(19-15-35)29-7-9-33-27-21-23(31)3-5-25(27)29/h2-9,20-21H,1,10-19H2

> <Parent_SMILES>
C([H])([H])(C([H])([H])N1C([H])([H])C([H])([H])N(C([H])([H])C1([H])[H])C2=C([H])C([H])=NC3=C([H])C(=C([H])C([H])=C32)Cl)C([H])([H])N4C([H])([H])C([H])([H])N(C([H])([H])C4([H])[H])C5=C([H])C([H])=NC6=C([H])C(=C([H])C([H])=C65)Cl

$$$$
