
  CDK     1104240541

  4  3  0  0  0  0  0  0  0  0999 V2000
    2.5981   -0.0000    0.0000 C   0  0  0  0  0  0  0  0  0  0  0  0
    1.2990   -0.7500    0.0000 C   0  0  0  0  0  0  0  0  0  0  0  0
    0.0000    0.0000    0.0000 O   0  0  0  0  0  0  0  0  0  0  0  0
    3.8971   -0.7500    0.0000 Cl  0  0  0  0  0  0  0  0  0  0  0  0
  1  2  1  0  0  0  0 
  2  3  2  0  0  0  0 
  1  4  1  0  0  0  0 
M  END
> <Rank>
1

> <Priority_score>
3.33

> <Reaction_type>
oxidative dehalogenation alkyl

> <Parent_ID>
1

> <Parent_InChI>
InChI=1S/C2H4Cl2/c3-1-2-4/h1-2H2

> <Parent_SMILES>
C([H])([H])(C([H])([H])Cl)Cl

$$$$

  CDK     1104240541

  5  4  0  0  0  0  0  0  0  0999 V2000
    2.5981   -0.0000    0.0000 C   0  0  0  0  0  0  0  0  0  0  0  0
    1.2990   -0.7500    0.0000 C   0  0  0  0  0  0  0  0  0  0  0  0
    0.0000    0.0000    0.0000 Cl  0  0  0  0  0  0  0  0  0  0  0  0
    1.2990   -2.2500    0.0000 O   0  0  0  0  0  0  0  0  0  0  0  0
    3.8971   -0.7500    0.0000 Cl  0  0  0  0  0  0  0  0  0  0  0  0
  1  2  1  0  0  0  0 
  2  3  1  0  0  0  0 
  2  4  1  0  0  0  0 
  1  5  1  0  0  0  0 
M  END
> <Rank>
1

> <Priority_score>
3.33

> <Reaction_type>
aliphatic hydroxylation

> <Parent_ID>
1

> <Parent_InChI>
InChI=1S/C2H4Cl2/c3-1-2-4/h1-2H2

> <Parent_SMILES>
C([H])([H])(C([H])([H])Cl)Cl

$$$$

  CDK     1104240541

  4  3  0  0  0  0  0  0  0  0999 V2000
    2.5981   -0.0000    0.0000 C   0  0  0  0  0  0  0  0  0  0  0  0
    1.2990   -0.7500    0.0000 C   0  0  0  0  0  0  0  0  0  0  0  0
    0.0000    0.0000    0.0000 Cl  0  0  0  0  0  0  0  0  0  0  0  0
    3.8971   -0.7500    0.0000 Cl  0  0  0  0  0  0  0  0  0  0  0  0
  1  2  2  0  0  0  0 
  2  3  1  0  0  0  0 
  1  4  1  4  0  0  0 
M  END
> <Rank>
3

> <Priority_score>
0.666

> <Reaction_type>
alkyl dehydrogenation

> <Parent_ID>
1

> <Parent_InChI>
InChI=1S/C2H4Cl2/c3-1-2-4/h1-2H2

> <Parent_SMILES>
C([H])([H])(C([H])([H])Cl)Cl

$$$$
