
  CDK     1104240504

 29 32  0  0  0  0  0  0  0  0999 V2000
   -7.5120    5.2491    0.0000 C   0  0  0  0  0  0  0  0  0  0  0  0
   -7.5099    3.7491    0.0000 N   0  0  0  0  0  0  0  0  0  0  0  0
   -6.2099    3.0008    0.0000 C   0  0  0  0  0  0  0  0  0  0  0  0
   -4.9118    3.7526    0.0000 O   0  0  0  0  0  0  0  0  0  0  0  0
   -6.2078    1.5008    0.0000 C   0  0  0  0  0  0  0  0  0  0  0  0
   -4.9081    0.7504    0.0000 C   0  0  0  0  0  0  0  0  0  0  0  0
   -4.9086   -0.7496    0.0000 C   0  0  0  0  0  0  0  0  0  0  0  0
   -6.2088   -1.4992    0.0000 C   0  0  0  0  0  0  0  0  0  0  0  0
   -7.4986   -0.7488    0.0000 C   0  0  0  0  0  0  0  0  0  0  0  0
   -7.4981    0.7512    0.0000 C   0  0  0  0  0  0  0  0  0  0  0  0
   -3.6089    1.5002    0.0000 S   0  0  0  0  0  0  0  0  0  0  0  0
   -3.6087    3.0002    0.0000 O   0  0  0  0  0  0  0  0  0  0  0  0
   -2.3100    0.7500    0.0000 C   0  0  0  0  0  0  0  0  0  0  0  0
   -1.0100    1.5000    0.0000 C   0  0  0  0  0  0  0  0  0  0  0  0
    0.2900    0.7500    0.0000 C   0  0  0  0  0  0  0  0  0  0  0  0
    0.2900   -0.7500    0.0000 C   0  0  0  0  0  0  0  0  0  0  0  0
   -1.0100   -1.5000    0.0000 C   0  0  0  0  0  0  0  0  0  0  0  0
   -2.3100   -0.7500    0.0000 C   0  0  0  0  0  0  0  0  0  0  0  0
    1.7200   -1.2100    0.0000 C   0  0  0  0  0  0  0  0  0  0  0  0
    2.6000    0.0000    0.0000 N   0  0  0  0  0  0  0  0  0  0  0  0
    1.7200    1.2100    0.0000 N   0  0  0  0  0  0  0  0  0  0  0  0
    2.1853   -2.6360    0.0000 C   0  0  0  0  0  0  0  0  0  0  0  0
    3.6529   -2.9461    0.0000 C   0  0  0  0  0  0  0  0  0  0  0  0
    4.1182   -4.3721    0.0000 C   0  0  0  0  0  0  0  0  0  0  0  0
    3.1155   -5.4888    0.0000 N   0  0  0  0  0  0  0  0  0  0  0  0
    3.5803   -6.9159    0.0000 C   0  0  0  0  0  0  0  0  0  0  0  0
    5.0479   -7.2262    0.0000 C   0  0  0  0  0  0  0  0  0  0  0  0
    6.0506   -6.1094    0.0000 C   0  0  0  0  0  0  0  0  0  0  0  0
    5.5857   -4.6824    0.0000 C   0  0  0  0  0  0  0  0  0  0  0  0
  1  2  1  0  0  0  0 
  2  3  1  0  0  0  0 
  3  4  2  0  0  0  0 
  3  5  1  0  0  0  0 
  5  6  2  0  0  0  0 
  6  7  1  0  0  0  0 
  7  8  2  0  0  0  0 
  8  9  1  0  0  0  0 
  9 10  2  0  0  0  0 
  5 10  1  0  0  0  0 
  6 11  1  0  0  0  0 
 11 12  2  0  0  0  0 
 11 13  1  0  0  0  0 
 13 14  2  0  0  0  0 
 14 15  1  0  0  0  0 
 15 16  2  0  0  0  0 
 16 17  1  0  0  0  0 
 17 18  2  0  0  0  0 
 13 18  1  0  0  0  0 
 16 19  1  0  0  0  0 
 19 20  2  0  0  0  0 
 20 21  1  0  0  0  0 
 15 21  1  0  0  0  0 
 19 22  1  4  0  0  0 
 22 23  2  0  0  0  0 
 23 24  1  0  0  0  0 
 24 25  2  0  0  0  0 
 25 26  1  0  0  0  0 
 26 27  2  0  0  0  0 
 27 28  1  0  0  0  0 
 28 29  2  0  0  0  0 
 24 29  1  0  0  0  0 
M  END
> <Rank>
1

> <Priority_score>
2.46

> <Reaction_type>
S-oxidation

> <Parent_ID>
1

> <Parent_InChI>
InChI=1S/C22H18N4OS/c1-23-22(27)18-7-2-3-8-21(18)28-16-10-11-17-19(25-26-20(17)14-16)12-9-15-6-4-5-13-24-15/h2-14H,1H3,(H,23,27)(H,25,26)/b12-9+

> <Parent_SMILES>
C([H])([H])([H])N([H])C(=O)C1=C(C([H])=C([H])C([H])=C1[H])SC2=C([H])C3=C(C([H])=C2[H])C(=NN3[H])/C(/[H])=C(\[H])/C4=NC([H])=C([H])C([H])=C4[H]

$$$$

  CDK     1104240504

 29 32  0  0  0  0  0  0  0  0999 V2000
   -7.5120    5.2491    0.0000 C   0  0  0  0  0  0  0  0  0  0  0  0
   -7.5099    3.7491    0.0000 N   0  0  0  0  0  0  0  0  0  0  0  0
   -6.2099    3.0008    0.0000 C   0  0  0  0  0  0  0  0  0  0  0  0
   -4.9118    3.7526    0.0000 O   0  0  0  0  0  0  0  0  0  0  0  0
   -6.2078    1.5008    0.0000 C   0  0  0  0  0  0  0  0  0  0  0  0
   -4.9081    0.7504    0.0000 C   0  0  0  0  0  0  0  0  0  0  0  0
   -4.9086   -0.7496    0.0000 C   0  0  0  0  0  0  0  0  0  0  0  0
   -6.2088   -1.4992    0.0000 C   0  0  0  0  0  0  0  0  0  0  0  0
   -7.4986   -0.7488    0.0000 C   0  0  0  0  0  0  0  0  0  0  0  0
   -7.4981    0.7512    0.0000 C   0  0  0  0  0  0  0  0  0  0  0  0
   -3.6089    1.5002    0.0000 S   0  0  0  0  0  0  0  0  0  0  0  0
   -2.3100    0.7500    0.0000 C   0  0  0  0  0  0  0  0  0  0  0  0
   -1.0100    1.5000    0.0000 C   0  0  0  0  0  0  0  0  0  0  0  0
    0.2900    0.7500    0.0000 C   0  0  0  0  0  0  0  0  0  0  0  0
    0.2900   -0.7500    0.0000 C   0  0  0  0  0  0  0  0  0  0  0  0
   -1.0100   -1.5000    0.0000 C   0  0  0  0  0  0  0  0  0  0  0  0
   -2.3100   -0.7500    0.0000 C   0  0  0  0  0  0  0  0  0  0  0  0
    1.7200   -1.2100    0.0000 C   0  0  0  0  0  0  0  0  0  0  0  0
    2.6000    0.0000    0.0000 N   0  0  0  0  0  0  0  0  0  0  0  0
    1.7200    1.2100    0.0000 N   0  0  0  0  0  0  0  0  0  0  0  0
    2.1853   -2.6360    0.0000 C   0  0  0  0  0  0  0  0  0  0  0  0
    3.6529   -2.9461    0.0000 C   0  0  0  0  0  0  0  0  0  0  0  0
    4.1182   -4.3721    0.0000 C   0  0  0  0  0  0  0  0  0  0  0  0
    5.5857   -4.6824    0.0000 C   0  0  0  0  0  0  0  0  0  0  0  0
    6.0506   -6.1094    0.0000 C   0  0  0  0  0  0  0  0  0  0  0  0
    5.0479   -7.2262    0.0000 C   0  0  0  0  0  0  0  0  0  0  0  0
    3.5803   -6.9159    0.0000 C   0  0  0  0  0  0  0  0  0  0  0  0
    3.1155   -5.4888    0.0000 N   0  0  0  0  0  0  0  0  0  0  0  0
    5.5131   -8.6522    0.0000 O   0  0  0  0  0  0  0  0  0  0  0  0
  1  2  1  0  0  0  0 
  2  3  1  0  0  0  0 
  3  4  2  0  0  0  0 
  3  5  1  0  0  0  0 
  5  6  2  0  0  0  0 
  6  7  1  0  0  0  0 
  7  8  2  0  0  0  0 
  8  9  1  0  0  0  0 
  9 10  2  0  0  0  0 
  5 10  1  0  0  0  0 
  6 11  1  0  0  0  0 
 11 12  1  0  0  0  0 
 12 13  2  0  0  0  0 
 13 14  1  0  0  0  0 
 14 15  2  0  0  0  0 
 15 16  1  0  0  0  0 
 16 17  2  0  0  0  0 
 12 17  1  0  0  0  0 
 15 18  1  0  0  0  0 
 18 19  2  0  0  0  0 
 19 20  1  0  0  0  0 
 14 20  1  0  0  0  0 
 18 21  1  4  0  0  0 
 21 22  2  0  0  0  0 
 22 23  1  0  0  0  0 
 23 24  2  0  0  0  0 
 24 25  1  0  0  0  0 
 25 26  2  0  0  0  0 
 26 27  1  0  0  0  0 
 27 28  2  0  0  0  0 
 23 28  1  0  0  0  0 
 26 29  1  0  0  0  0 
M  END
> <Rank>
2

> <Priority_score>
1.8900000000000001

> <Reaction_type>
aromatic hydroxylation

> <Parent_ID>
1

> <Parent_InChI>
InChI=1S/C22H18N4OS/c1-23-22(27)18-7-2-3-8-21(18)28-16-10-11-17-19(25-26-20(17)14-16)12-9-15-6-4-5-13-24-15/h2-14H,1H3,(H,23,27)(H,25,26)/b12-9+

> <Parent_SMILES>
C([H])([H])([H])N([H])C(=O)C1=C(C([H])=C([H])C([H])=C1[H])SC2=C([H])C3=C(C([H])=C2[H])C(=NN3[H])/C(/[H])=C(\[H])/C4=NC([H])=C([H])C([H])=C4[H]

$$$$

  CDK     1104240504

 29 32  0  0  0  0  0  0  0  0999 V2000
   -7.4986   -0.7488    0.0000 C   0  0  0  0  0  0  0  0  0  0  0  0
   -7.4981    0.7512    0.0000 C   0  0  0  0  0  0  0  0  0  0  0  0
   -6.2078    1.5008    0.0000 C   0  0  0  0  0  0  0  0  0  0  0  0
   -4.9081    0.7504    0.0000 C   0  0  0  0  0  0  0  0  0  0  0  0
   -4.9086   -0.7496    0.0000 C   0  0  0  0  0  0  0  0  0  0  0  0
   -6.2088   -1.4992    0.0000 C   0  0  0  0  0  0  0  0  0  0  0  0
   -3.6089    1.5002    0.0000 S   0  0  0  0  0  0  0  0  0  0  0  0
   -2.3100    0.7500    0.0000 C   0  0  0  0  0  0  0  0  0  0  0  0
   -1.0100    1.5000    0.0000 C   0  0  0  0  0  0  0  0  0  0  0  0
    0.2900    0.7500    0.0000 C   0  0  0  0  0  0  0  0  0  0  0  0
    0.2900   -0.7500    0.0000 C   0  0  0  0  0  0  0  0  0  0  0  0
   -1.0100   -1.5000    0.0000 C   0  0  0  0  0  0  0  0  0  0  0  0
   -2.3100   -0.7500    0.0000 C   0  0  0  0  0  0  0  0  0  0  0  0
    1.7200   -1.2100    0.0000 C   0  0  0  0  0  0  0  0  0  0  0  0
    2.6000    0.0000    0.0000 N   0  0  0  0  0  0  0  0  0  0  0  0
    1.7200    1.2100    0.0000 N   0  0  0  0  0  0  0  0  0  0  0  0
    2.1853   -2.6360    0.0000 C   0  0  0  0  0  0  0  0  0  0  0  0
    3.6529   -2.9461    0.0000 C   0  0  0  0  0  0  0  0  0  0  0  0
    4.1182   -4.3721    0.0000 C   0  0  0  0  0  0  0  0  0  0  0  0
    3.1155   -5.4888    0.0000 N   0  0  0  0  0  0  0  0  0  0  0  0
    3.5803   -6.9159    0.0000 C   0  0  0  0  0  0  0  0  0  0  0  0
    5.0479   -7.2262    0.0000 C   0  0  0  0  0  0  0  0  0  0  0  0
    6.0506   -6.1094    0.0000 C   0  0  0  0  0  0  0  0  0  0  0  0
    5.5857   -4.6824    0.0000 C   0  0  0  0  0  0  0  0  0  0  0  0
   -6.2099    3.0008    0.0000 C   0  0  0  0  0  0  0  0  0  0  0  0
   -4.9118    3.7526    0.0000 O   0  0  0  0  0  0  0  0  0  0  0  0
   -7.5099    3.7491    0.0000 N   0  0  0  0  0  0  0  0  0  0  0  0
   -7.5120    5.2491    0.0000 C   0  0  0  0  0  0  0  0  0  0  0  0
   -8.8120    5.9973    0.0000 O   0  0  0  0  0  0  0  0  0  0  0  0
  1  2  2  0  0  0  0 
  2  3  1  0  0  0  0 
  3  4  2  0  0  0  0 
  4  5  1  0  0  0  0 
  5  6  2  0  0  0  0 
  1  6  1  0  0  0  0 
  4  7  1  0  0  0  0 
  7  8  1  0  0  0  0 
  8  9  2  0  0  0  0 
  9 10  1  0  0  0  0 
 10 11  2  0  0  0  0 
 11 12  1  0  0  0  0 
 12 13  2  0  0  0  0 
  8 13  1  0  0  0  0 
 11 14  1  0  0  0  0 
 14 15  2  0  0  0  0 
 15 16  1  0  0  0  0 
 10 16  1  0  0  0  0 
 14 17  1  4  0  0  0 
 17 18  2  0  0  0  0 
 18 19  1  0  0  0  0 
 19 20  2  0  0  0  0 
 20 21  1  0  0  0  0 
 21 22  2  0  0  0  0 
 22 23  1  0  0  0  0 
 23 24  2  0  0  0  0 
 19 24  1  0  0  0  0 
  3 25  1  0  0  0  0 
 25 26  2  0  0  0  0 
 25 27  1  0  0  0  0 
 27 28  1  0  0  0  0 
 28 29  1  0  0  0  0 
M  END
> <Rank>
3

> <Priority_score>
1.3

> <Reaction_type>
aliphatic hydroxylation

> <Parent_ID>
1

> <Parent_InChI>
InChI=1S/C22H18N4OS/c1-23-22(27)18-7-2-3-8-21(18)28-16-10-11-17-19(25-26-20(17)14-16)12-9-15-6-4-5-13-24-15/h2-14H,1H3,(H,23,27)(H,25,26)/b12-9+

> <Parent_SMILES>
C([H])([H])([H])N([H])C(=O)C1=C(C([H])=C([H])C([H])=C1[H])SC2=C([H])C3=C(C([H])=C2[H])C(=NN3[H])/C(/[H])=C(\[H])/C4=NC([H])=C([H])C([H])=C4[H]

$$$$

  CDK     1104240504

 29 32  0  0  0  0  0  0  0  0999 V2000
   -7.5120    5.2491    0.0000 C   0  0  0  0  0  0  0  0  0  0  0  0
   -7.5099    3.7491    0.0000 N   0  0  0  0  0  0  0  0  0  0  0  0
   -6.2099    3.0008    0.0000 C   0  0  0  0  0  0  0  0  0  0  0  0
   -4.9118    3.7526    0.0000 O   0  0  0  0  0  0  0  0  0  0  0  0
   -6.2078    1.5008    0.0000 C   0  0  0  0  0  0  0  0  0  0  0  0
   -4.9081    0.7504    0.0000 C   0  0  0  0  0  0  0  0  0  0  0  0
   -4.9086   -0.7496    0.0000 C   0  0  0  0  0  0  0  0  0  0  0  0
   -6.2088   -1.4992    0.0000 C   0  0  0  0  0  0  0  0  0  0  0  0
   -7.4986   -0.7488    0.0000 C   0  0  0  0  0  0  0  0  0  0  0  0
   -7.4981    0.7512    0.0000 C   0  0  0  0  0  0  0  0  0  0  0  0
   -3.6089    1.5002    0.0000 S   0  0  0  0  0  0  0  0  0  0  0  0
   -2.3100    0.7500    0.0000 C   0  0  0  0  0  0  0  0  0  0  0  0
   -1.0100    1.5000    0.0000 C   0  0  0  0  0  0  0  0  0  0  0  0
    0.2900    0.7500    0.0000 C   0  0  0  0  0  0  0  0  0  0  0  0
    0.2900   -0.7500    0.0000 C   0  0  0  0  0  0  0  0  0  0  0  0
   -1.0100   -1.5000    0.0000 C   0  0  0  0  0  0  0  0  0  0  0  0
   -2.3100   -0.7500    0.0000 C   0  0  0  0  0  0  0  0  0  0  0  0
    1.7200   -1.2100    0.0000 C   0  0  0  0  0  0  0  0  0  0  0  0
    2.6000    0.0000    0.0000 N   0  0  0  0  0  0  0  0  0  0  0  0
    1.7200    1.2100    0.0000 N   0  0  0  0  0  0  0  0  0  0  0  0
    2.1853   -2.6360    0.0000 C   0  0  0  0  0  0  0  0  0  0  0  0
    3.6529   -2.9461    0.0000 C   0  0  0  0  0  0  0  0  0  0  0  0
    4.1182   -4.3721    0.0000 C   0  0  0  0  0  0  0  0  0  0  0  0
    3.1155   -5.4888    0.0000 N   0  0  0  0  0  0  0  0  0  0  0  0
    3.5803   -6.9159    0.0000 C   0  0  0  0  0  0  0  0  0  0  0  0
    5.0479   -7.2262    0.0000 C   0  0  0  0  0  0  0  0  0  0  0  0
    6.0506   -6.1094    0.0000 C   0  0  0  0  0  0  0  0  0  0  0  0
    5.5857   -4.6824    0.0000 C   0  0  0  0  0  0  0  0  0  0  0  0
   -8.8079    2.9973    0.0000 O   0  0  0  0  0  0  0  0  0  0  0  0
  1  2  1  0  0  0  0 
  2  3  1  0  0  0  0 
  3  4  2  0  0  0  0 
  3  5  1  0  0  0  0 
  5  6  2  0  0  0  0 
  6  7  1  0  0  0  0 
  7  8  2  0  0  0  0 
  8  9  1  0  0  0  0 
  9 10  2  0  0  0  0 
  5 10  1  0  0  0  0 
  6 11  1  0  0  0  0 
 11 12  1  0  0  0  0 
 12 13  2  0  0  0  0 
 13 14  1  0  0  0  0 
 14 15  2  0  0  0  0 
 15 16  1  0  0  0  0 
 16 17  2  0  0  0  0 
 12 17  1  0  0  0  0 
 15 18  1  0  0  0  0 
 18 19  2  0  0  0  0 
 19 20  1  0  0  0  0 
 14 20  1  0  0  0  0 
 18 21  1  4  0  0  0 
 21 22  2  0  0  0  0 
 22 23  1  0  0  0  0 
 23 24  2  0  0  0  0 
 24 25  1  0  0  0  0 
 25 26  2  0  0  0  0 
 26 27  1  0  0  0  0 
 27 28  2  0  0  0  0 
 23 28  1  0  0  0  0 
  2 29  1  0  0  0  0 
M  END
> <Rank>
3

> <Priority_score>
1.3

> <Reaction_type>
amine hydroxylation

> <Parent_ID>
1

> <Parent_InChI>
InChI=1S/C22H18N4OS/c1-23-22(27)18-7-2-3-8-21(18)28-16-10-11-17-19(25-26-20(17)14-16)12-9-15-6-4-5-13-24-15/h2-14H,1H3,(H,23,27)(H,25,26)/b12-9+

> <Parent_SMILES>
C([H])([H])([H])N([H])C(=O)C1=C(C([H])=C([H])C([H])=C1[H])SC2=C([H])C3=C(C([H])=C2[H])C(=NN3[H])/C(/[H])=C(\[H])/C4=NC([H])=C([H])C([H])=C4[H]

$$$$

  CDK     1104240504

 27 30  0  0  0  0  0  0  0  0999 V2000
   -7.4986   -0.7488    0.0000 C   0  0  0  0  0  0  0  0  0  0  0  0
   -7.4981    0.7512    0.0000 C   0  0  0  0  0  0  0  0  0  0  0  0
   -6.2078    1.5008    0.0000 C   0  0  0  0  0  0  0  0  0  0  0  0
   -4.9081    0.7504    0.0000 C   0  0  0  0  0  0  0  0  0  0  0  0
   -4.9086   -0.7496    0.0000 C   0  0  0  0  0  0  0  0  0  0  0  0
   -6.2088   -1.4992    0.0000 C   0  0  0  0  0  0  0  0  0  0  0  0
   -3.6089    1.5002    0.0000 S   0  0  0  0  0  0  0  0  0  0  0  0
   -2.3100    0.7500    0.0000 C   0  0  0  0  0  0  0  0  0  0  0  0
   -1.0100    1.5000    0.0000 C   0  0  0  0  0  0  0  0  0  0  0  0
    0.2900    0.7500    0.0000 C   0  0  0  0  0  0  0  0  0  0  0  0
    0.2900   -0.7500    0.0000 C   0  0  0  0  0  0  0  0  0  0  0  0
   -1.0100   -1.5000    0.0000 C   0  0  0  0  0  0  0  0  0  0  0  0
   -2.3100   -0.7500    0.0000 C   0  0  0  0  0  0  0  0  0  0  0  0
    1.7200   -1.2100    0.0000 C   0  0  0  0  0  0  0  0  0  0  0  0
    2.6000    0.0000    0.0000 N   0  0  0  0  0  0  0  0  0  0  0  0
    1.7200    1.2100    0.0000 N   0  0  0  0  0  0  0  0  0  0  0  0
    2.1853   -2.6360    0.0000 C   0  0  0  0  0  0  0  0  0  0  0  0
    3.6529   -2.9461    0.0000 C   0  0  0  0  0  0  0  0  0  0  0  0
    4.1182   -4.3721    0.0000 C   0  0  0  0  0  0  0  0  0  0  0  0
    3.1155   -5.4888    0.0000 N   0  0  0  0  0  0  0  0  0  0  0  0
    3.5803   -6.9159    0.0000 C   0  0  0  0  0  0  0  0  0  0  0  0
    5.0479   -7.2262    0.0000 C   0  0  0  0  0  0  0  0  0  0  0  0
    6.0506   -6.1094    0.0000 C   0  0  0  0  0  0  0  0  0  0  0  0
    5.5857   -4.6824    0.0000 C   0  0  0  0  0  0  0  0  0  0  0  0
   -6.2099    3.0008    0.0000 C   0  0  0  0  0  0  0  0  0  0  0  0
   -4.9118    3.7526    0.0000 O   0  0  0  0  0  0  0  0  0  0  0  0
   -7.5099    3.7491    0.0000 N   0  0  0  0  0  0  0  0  0  0  0  0
  1  2  2  0  0  0  0 
  2  3  1  0  0  0  0 
  3  4  2  0  0  0  0 
  4  5  1  0  0  0  0 
  5  6  2  0  0  0  0 
  1  6  1  0  0  0  0 
  4  7  1  0  0  0  0 
  7  8  1  0  0  0  0 
  8  9  2  0  0  0  0 
  9 10  1  0  0  0  0 
 10 11  2  0  0  0  0 
 11 12  1  0  0  0  0 
 12 13  2  0  0  0  0 
  8 13  1  0  0  0  0 
 11 14  1  0  0  0  0 
 14 15  2  0  0  0  0 
 15 16  1  0  0  0  0 
 10 16  1  0  0  0  0 
 14 17  1  4  0  0  0 
 17 18  2  0  0  0  0 
 18 19  1  0  0  0  0 
 19 20  2  0  0  0  0 
 20 21  1  0  0  0  0 
 21 22  2  0  0  0  0 
 22 23  1  0  0  0  0 
 23 24  2  0  0  0  0 
 19 24  1  0  0  0  0 
  3 25  1  0  0  0  0 
 25 26  2  0  0  0  0 
 25 27  1  0  0  0  0 
M  END
> <Rank>
3

> <Priority_score>
1.3

> <Reaction_type>
N-dealkylation

> <Parent_ID>
1

> <Parent_InChI>
InChI=1S/C22H18N4OS/c1-23-22(27)18-7-2-3-8-21(18)28-16-10-11-17-19(25-26-20(17)14-16)12-9-15-6-4-5-13-24-15/h2-14H,1H3,(H,23,27)(H,25,26)/b12-9+

> <Parent_SMILES>
C([H])([H])([H])N([H])C(=O)C1=C(C([H])=C([H])C([H])=C1[H])SC2=C([H])C3=C(C([H])=C2[H])C(=NN3[H])/C(/[H])=C(\[H])/C4=NC([H])=C([H])C([H])=C4[H]

$$$$

  CDK     1104240504

 29 32  0  0  0  0  0  0  0  0999 V2000
   -7.5053    5.2519    0.0000 C   0  0  0  0  0  0  0  0  0  0  0  0
   -7.5058    3.7519    0.0000 N   0  0  0  0  0  0  0  0  0  0  0  0
   -6.2070    3.0015    0.0000 C   0  0  0  0  0  0  0  0  0  0  0  0
   -4.9077    3.7510    0.0000 O   0  0  0  0  0  0  0  0  0  0  0  0
   -6.2075    1.5015    0.0000 C   0  0  0  0  0  0  0  0  0  0  0  0
   -4.9081    0.7504    0.0000 C   0  0  0  0  0  0  0  0  0  0  0  0
   -4.9078   -0.7504    0.0000 C   0  0  0  0  0  0  0  0  0  0  0  0
   -6.2070   -1.5002    0.0000 C   0  0  0  0  0  0  0  0  0  0  0  0
   -7.5064   -0.7492    0.0000 C   0  0  0  0  0  0  0  0  0  0  0  0
   -7.5066    0.7517    0.0000 C   0  0  0  0  0  0  0  0  0  0  0  0
   -8.8057    1.5017    0.0000 O   0  0  0  0  0  0  0  0  0  0  0  0
   -3.6089    1.5002    0.0000 S   0  0  0  0  0  0  0  0  0  0  0  0
   -2.3100    0.7500    0.0000 C   0  0  0  0  0  0  0  0  0  0  0  0
   -1.0100    1.5000    0.0000 C   0  0  0  0  0  0  0  0  0  0  0  0
    0.2900    0.7500    0.0000 C   0  0  0  0  0  0  0  0  0  0  0  0
    0.2900   -0.7500    0.0000 C   0  0  0  0  0  0  0  0  0  0  0  0
   -1.0100   -1.5000    0.0000 C   0  0  0  0  0  0  0  0  0  0  0  0
   -2.3100   -0.7500    0.0000 C   0  0  0  0  0  0  0  0  0  0  0  0
    1.7200   -1.2100    0.0000 C   0  0  0  0  0  0  0  0  0  0  0  0
    2.6000    0.0000    0.0000 N   0  0  0  0  0  0  0  0  0  0  0  0
    1.7200    1.2100    0.0000 N   0  0  0  0  0  0  0  0  0  0  0  0
    2.1853   -2.6360    0.0000 C   0  0  0  0  0  0  0  0  0  0  0  0
    3.6529   -2.9461    0.0000 C   0  0  0  0  0  0  0  0  0  0  0  0
    4.1182   -4.3721    0.0000 C   0  0  0  0  0  0  0  0  0  0  0  0
    3.1155   -5.4888    0.0000 N   0  0  0  0  0  0  0  0  0  0  0  0
    3.5803   -6.9159    0.0000 C   0  0  0  0  0  0  0  0  0  0  0  0
    5.0479   -7.2262    0.0000 C   0  0  0  0  0  0  0  0  0  0  0  0
    6.0506   -6.1094    0.0000 C   0  0  0  0  0  0  0  0  0  0  0  0
    5.5857   -4.6824    0.0000 C   0  0  0  0  0  0  0  0  0  0  0  0
  1  2  1  0  0  0  0 
  2  3  1  0  0  0  0 
  3  4  2  0  0  0  0 
  3  5  1  0  0  0  0 
  5  6  2  0  0  0  0 
  6  7  1  0  0  0  0 
  7  8  2  0  0  0  0 
  8  9  1  0  0  0  0 
  9 10  2  0  0  0  0 
  5 10  1  0  0  0  0 
 10 11  1  0  0  0  0 
  6 12  1  0  0  0  0 
 12 13  1  0  0  0  0 
 13 14  2  0  0  0  0 
 14 15  1  0  0  0  0 
 15 16  2  0  0  0  0 
 16 17  1  0  0  0  0 
 17 18  2  0  0  0  0 
 13 18  1  0  0  0  0 
 16 19  1  0  0  0  0 
 19 20  2  0  0  0  0 
 20 21  1  0  0  0  0 
 15 21  1  0  0  0  0 
 19 22  1  4  0  0  0 
 22 23  2  0  0  0  0 
 23 24  1  0  0  0  0 
 24 25  2  0  0  0  0 
 25 26  1  0  0  0  0 
 26 27  2  0  0  0  0 
 27 28  1  0  0  0  0 
 28 29  2  0  0  0  0 
 24 29  1  0  0  0  0 
M  END
> <Rank>
6

> <Priority_score>
1.08

> <Reaction_type>
aromatic hydroxylation

> <Parent_ID>
1

> <Parent_InChI>
InChI=1S/C22H18N4OS/c1-23-22(27)18-7-2-3-8-21(18)28-16-10-11-17-19(25-26-20(17)14-16)12-9-15-6-4-5-13-24-15/h2-14H,1H3,(H,23,27)(H,25,26)/b12-9+

> <Parent_SMILES>
C([H])([H])([H])N([H])C(=O)C1=C(C([H])=C([H])C([H])=C1[H])SC2=C([H])C3=C(C([H])=C2[H])C(=NN3[H])/C(/[H])=C(\[H])/C4=NC([H])=C([H])C([H])=C4[H]

$$$$

  CDK     1104240504

 28 31  0  0  0  0  0  0  0  0999 V2000
   -7.5120    5.2491    0.0000 C   0  0  0  0  0  0  0  0  0  0  0  0
   -7.5099    3.7491    0.0000 N   0  0  0  0  0  0  0  0  0  0  0  0
   -6.2099    3.0008    0.0000 C   0  0  0  0  0  0  0  0  0  0  0  0
   -4.9118    3.7526    0.0000 O   0  0  0  0  0  0  0  0  0  0  0  0
   -6.2078    1.5008    0.0000 C   0  0  0  0  0  0  0  0  0  0  0  0
   -4.9081    0.7504    0.0000 C   0  0  0  0  0  0  0  0  0  0  0  0
   -4.9086   -0.7496    0.0000 C   0  0  0  0  0  0  0  0  0  0  0  0
   -6.2088   -1.4992    0.0000 C   0  0  0  0  0  0  0  0  0  0  0  0
   -7.4986   -0.7488    0.0000 C   0  0  0  0  0  0  0  0  0  0  0  0
   -7.4981    0.7512    0.0000 C   0  0  0  0  0  0  0  0  0  0  0  0
   -3.6089    1.5002    0.0000 S   0  0  0  0  0  0  0  0  0  0  0  0
   -2.3100    0.7500    0.0000 C   0  0  0  0  0  0  0  0  0  0  0  0
   -1.0100    1.5000    0.0000 C   0  0  0  0  0  0  0  0  0  0  0  0
    0.2900    0.7500    0.0000 C   0  0  0  0  0  0  0  0  0  0  0  0
    0.2900   -0.7500    0.0000 C   0  0  0  0  0  0  0  0  0  0  0  0
   -1.0100   -1.5000    0.0000 C   0  0  0  0  0  0  0  0  0  0  0  0
   -2.3100   -0.7500    0.0000 C   0  0  0  0  0  0  0  0  0  0  0  0
    1.7200   -1.2100    0.0000 C   0  0  0  0  0  0  0  0  0  0  0  0
    2.6000    0.0000    0.0000 N   0  0  0  0  0  0  0  0  0  0  0  0
    1.7200    1.2100    0.0000 N   0  0  0  0  0  0  0  0  0  0  0  0
    2.1853   -2.6360    0.0000 C   0  0  0  0  0  0  0  0  0  0  0  0
    3.6529   -2.9461    0.0000 C   0  0  0  0  0  0  0  0  0  0  0  0
    4.1182   -4.3721    0.0000 C   0  0  0  0  0  0  0  0  0  0  0  0
    3.1155   -5.4888    0.0000 N   0  0  0  0  0  0  0  0  0  0  0  0
    3.5803   -6.9159    0.0000 C   0  0  0  0  0  0  0  0  0  0  0  0
    5.0479   -7.2262    0.0000 C   0  0  0  0  0  0  0  0  0  0  0  0
    6.0506   -6.1094    0.0000 C   0  0  0  0  0  0  0  0  0  0  0  0
    5.5857   -4.6824    0.0000 C   0  0  0  0  0  0  0  0  0  0  0  0
  1  2  2  0  0  0  0 
  2  3  1  0  0  0  0 
  3  4  2  0  0  0  0 
  3  5  1  0  0  0  0 
  5  6  2  0  0  0  0 
  6  7  1  0  0  0  0 
  7  8  2  0  0  0  0 
  8  9  1  0  0  0  0 
  9 10  2  0  0  0  0 
  5 10  1  0  0  0  0 
  6 11  1  0  0  0  0 
 11 12  1  0  0  0  0 
 12 13  2  0  0  0  0 
 13 14  1  0  0  0  0 
 14 15  2  0  0  0  0 
 15 16  1  0  0  0  0 
 16 17  2  0  0  0  0 
 12 17  1  0  0  0  0 
 15 18  1  0  0  0  0 
 18 19  2  0  0  0  0 
 19 20  1  0  0  0  0 
 14 20  1  0  0  0  0 
 18 21  1  4  0  0  0 
 21 22  2  0  0  0  0 
 22 23  1  0  0  0  0 
 23 24  2  0  0  0  0 
 24 25  1  0  0  0  0 
 25 26  2  0  0  0  0 
 26 27  1  0  0  0  0 
 27 28  2  0  0  0  0 
 23 28  1  0  0  0  0 
M  CHG  1   2   1
M  END
> <Rank>
7

> <Priority_score>
0.26

> <Reaction_type>
dehydration of N-C bond

> <Parent_ID>
1

> <Parent_InChI>
InChI=1S/C22H18N4OS/c1-23-22(27)18-7-2-3-8-21(18)28-16-10-11-17-19(25-26-20(17)14-16)12-9-15-6-4-5-13-24-15/h2-14H,1H3,(H,23,27)(H,25,26)/b12-9+

> <Parent_SMILES>
C([H])([H])([H])N([H])C(=O)C1=C(C([H])=C([H])C([H])=C1[H])SC2=C([H])C3=C(C([H])=C2[H])C(=NN3[H])/C(/[H])=C(\[H])/C4=NC([H])=C([H])C([H])=C4[H]

$$$$
