
  CDK     1104240537

 29 30  0  0  0  0  0  0  0  0999 V2000
   -0.0000    1.5000    0.0000 C   0  0  0  0  0  0  0  0  0  0  0  0
   -1.3000    0.7500    0.0000 C   0  0  0  0  0  0  0  0  0  0  0  0
   -1.3000   -0.7500    0.0000 C   0  0  1  0  0  0  0  0  0  0  0  0
   -2.5989   -1.5002    0.0000 C   0  0  0  0  0  0  0  0  0  0  0  0
   -3.8981   -0.7504    0.0000 N   0  0  0  0  0  0  0  0  0  0  0  0
   -5.1970   -1.5006    0.0000 C   0  0  0  0  0  0  0  0  0  0  0  0
   -5.1968   -3.0006    0.0000 O   0  0  0  0  0  0  0  0  0  0  0  0
   -6.4962   -0.7508    0.0000 C   0  0  0  0  0  0  0  0  0  0  0  0
   -7.7952   -1.5008    0.0000 C   0  0  0  0  0  0  0  0  0  0  0  0
   -9.0947   -0.7500    0.0000 C   0  0  0  0  0  0  0  0  0  0  0  0
   -9.0952    0.7508    0.0000 C   0  0  0  0  0  0  0  0  0  0  0  0
   -7.7962    1.5008    0.0000 C   0  0  0  0  0  0  0  0  0  0  0  0
   -6.4966    0.7500    0.0000 C   0  0  0  0  0  0  0  0  0  0  0  0
   -5.1976    1.5000    0.0000 O   0  0  0  0  0  0  0  0  0  0  0  0
   -5.1976    3.0000    0.0000 C   0  0  0  0  0  0  0  0  0  0  0  0
   -6.4966    3.7500    0.0000 C   0  0  0  0  0  0  0  0  0  0  0  0
   -6.4966    5.2500    0.0000 F   0  0  0  0  0  0  0  0  0  0  0  0
   -7.9738    4.0105    0.0000 F   0  0  0  0  0  0  0  0  0  0  0  0
   -7.0097    2.3405    0.0000 F   0  0  0  0  0  0  0  0  0  0  0  0
  -10.3937   -1.5000    0.0000 O   0  0  0  0  0  0  0  0  0  0  0  0
  -11.6928   -0.7500    0.0000 C   0  0  0  0  0  0  0  0  0  0  0  0
  -12.9918   -1.5000    0.0000 C   0  0  0  0  0  0  0  0  0  0  0  0
  -14.2909   -0.7500    0.0000 F   0  0  0  0  0  0  0  0  0  0  0  0
  -13.9560   -2.6491    0.0000 F   0  0  0  0  0  0  0  0  0  0  0  0
  -12.0276   -2.6491    0.0000 F   0  0  0  0  0  0  0  0  0  0  0  0
   -0.0000   -1.5000    0.0000 N   0  0  0  0  0  0  0  0  0  0  0  0
    1.3000   -0.7500    0.0000 C   0  0  0  0  0  0  0  0  0  0  0  0
    1.3000    0.7500    0.0000 C   0  0  0  0  0  0  0  0  0  0  0  0
    2.5989   -1.5002    0.0000 O   0  0  0  0  0  0  0  0  0  0  0  0
  1  2  1  0  0  0  0 
  2  3  1  0  0  0  0 
  3  4  1  6  0  0  0 
  4  5  1  0  0  0  0 
  5  6  1  0  0  0  0 
  6  7  2  0  0  0  0 
  6  8  1  0  0  0  0 
  8  9  2  0  0  0  0 
  9 10  1  0  0  0  0 
 10 11  2  0  0  0  0 
 11 12  1  0  0  0  0 
 12 13  2  0  0  0  0 
  8 13  1  0  0  0  0 
 13 14  1  0  0  0  0 
 14 15  1  0  0  0  0 
 15 16  1  0  0  0  0 
 16 17  1  0  0  0  0 
 16 18  1  0  0  0  0 
 16 19  1  0  0  0  0 
 10 20  1  0  0  0  0 
 20 21  1  0  0  0  0 
 21 22  1  0  0  0  0 
 22 23  1  0  0  0  0 
 22 24  1  0  0  0  0 
 22 25  1  0  0  0  0 
  3 26  1  0  0  0  0 
 26 27  1  0  0  0  0 
 27 28  1  0  0  0  0 
  1 28  1  0  0  0  0 
 27 29  1  0  0  0  0 
M  END
> <Rank>
1

> <Priority_score>
3.1

> <Reaction_type>
aliphatic hydroxylation

> <Parent_ID>
1

> <Parent_InChI>
InChI=1S/C17H20F6N2O3/c18-16(19,20)9-27-12-4-5-14(28-10-17(21,22)23)13(7-12)15(26)25-8-11-3-1-2-6-24-11/h4-5,7,11,24H,1-3,6,8-10H2,(H,25,26)/t11-/m0/s1

> <Parent_SMILES>
C1([H])([H])C([H])([H])C([H])([H])N([H])[C@@]([H])(C1([H])[H])C([H])([H])N([H])C(=O)C2=C([H])C(=C([H])C([H])=C2OC([H])([H])C(F)(F)F)OC([H])([H])C(F)(F)F

$$$$

  CDK     1104240537

 29 29  0  0  0  0  0  0  0  0999 V2000
    8.8042    0.5812    0.0000 C   0  0  0  0  0  0  0  0  0  0  0  0
   10.1031    1.3315    0.0000 C   0  0  0  0  0  0  0  0  0  0  0  0
   11.4023    0.5817    0.0000 C   0  0  0  0  0  0  0  0  0  0  0  0
   12.7012    1.3319    0.0000 O   0  0  0  0  0  0  0  0  0  0  0  0
    7.5051    1.3310    0.0000 C   0  0  0  0  0  0  0  0  0  0  0  0
    6.2062    0.5808    0.0000 C   0  0  1  0  0  0  0  0  0  0  0  0
    4.9070    1.3306    0.0000 C   0  0  0  0  0  0  0  0  0  0  0  0
    3.6081    0.5804    0.0000 N   0  0  0  0  0  0  0  0  0  0  0  0
    2.3089    1.3302    0.0000 C   0  0  0  0  0  0  0  0  0  0  0  0
    2.3087    2.8302    0.0000 O   0  0  0  0  0  0  0  0  0  0  0  0
    1.0100    0.5800    0.0000 C   0  0  0  0  0  0  0  0  0  0  0  0
    1.0100   -0.9200    0.0000 C   0  0  0  0  0  0  0  0  0  0  0  0
   -0.2900   -1.6700    0.0000 C   0  0  0  0  0  0  0  0  0  0  0  0
   -1.5900   -0.9200    0.0000 C   0  0  0  0  0  0  0  0  0  0  0  0
   -1.5900    0.5800    0.0000 C   0  0  0  0  0  0  0  0  0  0  0  0
   -0.2900    1.3300    0.0000 C   0  0  0  0  0  0  0  0  0  0  0  0
   -0.2900    2.8300    0.0000 O   0  0  0  0  0  0  0  0  0  0  0  0
   -1.5890    3.5800    0.0000 C   0  0  0  0  0  0  0  0  0  0  0  0
   -2.8881    2.8300    0.0000 C   0  0  0  0  0  0  0  0  0  0  0  0
   -4.1871    3.5800    0.0000 F   0  0  0  0  0  0  0  0  0  0  0  0
   -3.8523    1.6809    0.0000 F   0  0  0  0  0  0  0  0  0  0  0  0
   -1.9239    1.6809    0.0000 F   0  0  0  0  0  0  0  0  0  0  0  0
   -0.2900   -3.1700    0.0000 O   0  0  0  0  0  0  0  0  0  0  0  0
   -1.5890   -3.9200    0.0000 C   0  0  0  0  0  0  0  0  0  0  0  0
   -1.5890   -5.4200    0.0000 C   0  0  0  0  0  0  0  0  0  0  0  0
   -2.8881   -6.1700    0.0000 F   0  0  0  0  0  0  0  0  0  0  0  0
   -1.0760   -6.8295    0.0000 F   0  0  0  0  0  0  0  0  0  0  0  0
   -0.1118   -5.1595    0.0000 F   0  0  0  0  0  0  0  0  0  0  0  0
    6.2064   -0.9192    0.0000 N   0  0  0  0  0  0  0  0  0  0  0  0
  1  2  1  0  0  0  0 
  2  3  1  0  0  0  0 
  3  4  2  0  0  0  0 
  1  5  1  0  0  0  0 
  5  6  1  0  0  0  0 
  6  7  1  0  0  0  0 
  7  8  1  0  0  0  0 
  8  9  1  0  0  0  0 
  9 10  2  0  0  0  0 
  9 11  1  0  0  0  0 
 11 12  2  0  0  0  0 
 12 13  1  0  0  0  0 
 13 14  2  0  0  0  0 
 14 15  1  0  0  0  0 
 15 16  2  0  0  0  0 
 11 16  1  0  0  0  0 
 16 17  1  0  0  0  0 
 17 18  1  0  0  0  0 
 18 19  1  0  0  0  0 
 19 20  1  0  0  0  0 
 19 21  1  0  0  0  0 
 19 22  1  0  0  0  0 
 13 23  1  0  0  0  0 
 23 24  1  0  0  0  0 
 24 25  1  0  0  0  0 
 25 26  1  0  0  0  0 
 25 27  1  0  0  0  0 
 25 28  1  0  0  0  0 
  6 29  1  6  0  0  0 
M  END
> <Rank>
1

> <Priority_score>
3.1

> <Reaction_type>
N-dealkylation

> <Parent_ID>
1

> <Parent_InChI>
InChI=1S/C17H20F6N2O3/c18-16(19,20)9-27-12-4-5-14(28-10-17(21,22)23)13(7-12)15(26)25-8-11-3-1-2-6-24-11/h4-5,7,11,24H,1-3,6,8-10H2,(H,25,26)/t11-/m0/s1

> <Parent_SMILES>
C1([H])([H])C([H])([H])C([H])([H])N([H])[C@@]([H])(C1([H])[H])C([H])([H])N([H])C(=O)C2=C([H])C(=C([H])C([H])=C2OC([H])([H])C(F)(F)F)OC([H])([H])C(F)(F)F

$$$$

  CDK     1104240537

 29 30  0  0  0  0  0  0  0  0999 V2000
    9.0964   -1.5030    0.0000 C   0  0  0  0  0  0  0  0  0  0  0  0
   10.3964   -0.7530    0.0000 C   0  0  0  0  0  0  0  0  0  0  0  0
   10.3964    0.7470    0.0000 C   0  0  0  0  0  0  0  0  0  0  0  0
    9.0964    1.4970    0.0000 N   0  0  0  0  0  0  0  0  0  0  0  0
    7.7964    0.7470    0.0000 C   0  0  1  0  0  0  0  0  0  0  0  0
    7.7964   -0.7530    0.0000 C   0  0  0  0  0  0  0  0  0  0  0  0
    6.4975    1.4972    0.0000 C   0  0  0  0  0  0  0  0  0  0  0  0
    5.1983    0.7474    0.0000 N   0  0  0  0  0  0  0  0  0  0  0  0
    3.8994    1.4976    0.0000 C   0  0  0  0  0  0  0  0  0  0  0  0
    3.8996    2.9976    0.0000 O   0  0  0  0  0  0  0  0  0  0  0  0
    2.6002    0.7478    0.0000 C   0  0  0  0  0  0  0  0  0  0  0  0
    2.5998   -0.7522    0.0000 C   0  0  0  0  0  0  0  0  0  0  0  0
    1.2995   -1.5018    0.0000 C   0  0  0  0  0  0  0  0  0  0  0  0
   -0.0002   -0.7513    0.0000 C   0  0  0  0  0  0  0  0  0  0  0  0
    0.0002    0.7487    0.0000 C   0  0  0  0  0  0  0  0  0  0  0  0
    1.3005    1.4982    0.0000 C   0  0  0  0  0  0  0  0  0  0  0  0
    1.3010    2.9982    0.0000 O   0  0  0  0  0  0  0  0  0  0  0  0
    0.0022    3.7487    0.0000 C   0  0  0  0  0  0  0  0  0  0  0  0
    0.0026    5.2487    0.0000 C   0  0  0  0  0  0  0  0  0  0  0  0
   -1.2962    5.9991    0.0000 F   0  0  0  0  0  0  0  0  0  0  0  0
    1.4798    4.9877    0.0000 F   0  0  0  0  0  0  0  0  0  0  0  0
    0.5161    6.6580    0.0000 F   0  0  0  0  0  0  0  0  0  0  0  0
    1.2990   -3.0018    0.0000 O   0  0  0  0  0  0  0  0  0  0  0  0
   -0.0002   -3.7513    0.0000 C   0  0  0  0  0  0  0  0  0  0  0  0
   -0.0007   -5.2513    0.0000 C   0  0  0  0  0  0  0  0  0  0  0  0
   -1.3000   -6.0009    0.0000 F   0  0  0  0  0  0  0  0  0  0  0  0
    0.5119   -6.6610    0.0000 F   0  0  0  0  0  0  0  0  0  0  0  0
    1.4766   -4.9913    0.0000 F   0  0  0  0  0  0  0  0  0  0  0  0
    9.0964    2.9970    0.0000 O   0  0  0  0  0  0  0  0  0  0  0  0
  1  2  1  0  0  0  0 
  2  3  1  0  0  0  0 
  3  4  1  0  0  0  0 
  4  5  1  0  0  0  0 
  5  6  1  0  0  0  0 
  1  6  1  0  0  0  0 
  5  7  1  1  0  0  0 
  7  8  1  0  0  0  0 
  8  9  1  0  0  0  0 
  9 10  2  0  0  0  0 
  9 11  1  0  0  0  0 
 11 12  2  0  0  0  0 
 12 13  1  0  0  0  0 
 13 14  2  0  0  0  0 
 14 15  1  0  0  0  0 
 15 16  2  0  0  0  0 
 11 16  1  0  0  0  0 
 16 17  1  0  0  0  0 
 17 18  1  0  0  0  0 
 18 19  1  0  0  0  0 
 19 20  1  0  0  0  0 
 19 21  1  0  0  0  0 
 19 22  1  0  0  0  0 
 13 23  1  0  0  0  0 
 23 24  1  0  0  0  0 
 24 25  1  0  0  0  0 
 25 26  1  0  0  0  0 
 25 27  1  0  0  0  0 
 25 28  1  0  0  0  0 
  4 29  1  0  0  0  0 
M  END
> <Rank>
1

> <Priority_score>
3.1

> <Reaction_type>
amine hydroxylation

> <Parent_ID>
1

> <Parent_InChI>
InChI=1S/C17H20F6N2O3/c18-16(19,20)9-27-12-4-5-14(28-10-17(21,22)23)13(7-12)15(26)25-8-11-3-1-2-6-24-11/h4-5,7,11,24H,1-3,6,8-10H2,(H,25,26)/t11-/m0/s1

> <Parent_SMILES>
C1([H])([H])C([H])([H])C([H])([H])N([H])[C@@]([H])(C1([H])[H])C([H])([H])N([H])C(=O)C2=C([H])C(=C([H])C([H])=C2OC([H])([H])C(F)(F)F)OC([H])([H])C(F)(F)F

$$$$

  CDK     1104240537

  6  5  0  0  0  0  0  0  0  0999 V2000
    1.2990   -0.7500    0.0000 C   0  0  0  0  0  0  0  0  0  0  0  0
    0.0000    0.0000    0.0000 O   0  0  0  0  0  0  0  0  0  0  0  0
    2.5981   -0.0000    0.0000 C   0  0  0  0  0  0  0  0  0  0  0  0
    3.8971   -0.7500    0.0000 F   0  0  0  0  0  0  0  0  0  0  0  0
    3.5623    1.1491    0.0000 F   0  0  0  0  0  0  0  0  0  0  0  0
    1.6339    1.1491    0.0000 F   0  0  0  0  0  0  0  0  0  0  0  0
  1  2  2  0  0  0  0 
  1  3  1  0  0  0  0 
  3  4  1  0  0  0  0 
  3  5  1  0  0  0  0 
  3  6  1  0  0  0  0 
M  END
> <Rank>
4

> <Priority_score>
1.6600000000000001

> <Reaction_type>
oxidative ether cleavage to one alcohol and one aldehyde/ketone

> <Parent_ID>
1

> <Parent_InChI>
InChI=1S/C17H20F6N2O3/c18-16(19,20)9-27-12-4-5-14(28-10-17(21,22)23)13(7-12)15(26)25-8-11-3-1-2-6-24-11/h4-5,7,11,24H,1-3,6,8-10H2,(H,25,26)/t11-/m0/s1

> <Parent_SMILES>
C1([H])([H])C([H])([H])C([H])([H])N([H])[C@@]([H])(C1([H])[H])C([H])([H])N([H])C(=O)C2=C([H])C(=C([H])C([H])=C2OC([H])([H])C(F)(F)F)OC([H])([H])C(F)(F)F

$$$$

  CDK     1104240537

 29 30  0  0  0  0  0  0  0  0999 V2000
   -0.3700   -1.7100    0.0000 C   0  0  0  0  0  0  0  0  0  0  0  0
   -1.6700   -0.9600    0.0000 C   0  0  0  0  0  0  0  0  0  0  0  0
   -1.6700    0.5400    0.0000 C   0  0  0  0  0  0  0  0  0  0  0  0
   -0.3700    1.2900    0.0000 N   0  0  0  0  0  0  0  0  0  0  0  0
    0.9300    0.5400    0.0000 C   0  0  1  0  0  0  0  0  0  0  0  0
    0.9300   -0.9600    0.0000 C   0  0  0  0  0  0  0  0  0  0  0  0
    2.2289    1.2902    0.0000 C   0  0  0  0  0  0  0  0  0  0  0  0
    3.5281    0.5404    0.0000 N   0  0  0  0  0  0  0  0  0  0  0  0
    4.8270    1.2906    0.0000 C   0  0  0  0  0  0  0  0  0  0  0  0
    4.8268    2.7906    0.0000 O   0  0  0  0  0  0  0  0  0  0  0  0
    6.1262    0.5408    0.0000 C   0  0  0  0  0  0  0  0  0  0  0  0
    7.4252    1.2908    0.0000 C   0  0  0  0  0  0  0  0  0  0  0  0
    8.7247    0.5400    0.0000 C   0  0  0  0  0  0  0  0  0  0  0  0
    8.7252   -0.9608    0.0000 C   0  0  0  0  0  0  0  0  0  0  0  0
    7.4262   -1.7108    0.0000 C   0  0  0  0  0  0  0  0  0  0  0  0
    6.1266   -0.9600    0.0000 C   0  0  0  0  0  0  0  0  0  0  0  0
    4.8276   -1.7100    0.0000 O   0  0  0  0  0  0  0  0  0  0  0  0
    4.8276   -3.2100    0.0000 C   0  0  0  0  0  0  0  0  0  0  0  0
    6.1266   -3.9600    0.0000 C   0  0  0  0  0  0  0  0  0  0  0  0
    6.1266   -5.4600    0.0000 F   0  0  0  0  0  0  0  0  0  0  0  0
    7.6038   -4.2205    0.0000 F   0  0  0  0  0  0  0  0  0  0  0  0
    6.6397   -2.5505    0.0000 F   0  0  0  0  0  0  0  0  0  0  0  0
   10.0237    1.2900    0.0000 O   0  0  0  0  0  0  0  0  0  0  0  0
   11.3228    0.5400    0.0000 C   0  0  0  0  0  0  0  0  0  0  0  0
   12.6218    1.2900    0.0000 C   0  0  0  0  0  0  0  0  0  0  0  0
   13.9209    0.5400    0.0000 F   0  0  0  0  0  0  0  0  0  0  0  0
   13.5860    2.4391    0.0000 F   0  0  0  0  0  0  0  0  0  0  0  0
   11.6576    2.4391    0.0000 F   0  0  0  0  0  0  0  0  0  0  0  0
   11.3228   -0.9600    0.0000 O   0  0  0  0  0  0  0  0  0  0  0  0
  1  2  1  0  0  0  0 
  2  3  1  0  0  0  0 
  3  4  1  0  0  0  0 
  4  5  1  0  0  0  0 
  5  6  1  0  0  0  0 
  1  6  1  0  0  0  0 
  5  7  1  6  0  0  0 
  7  8  1  0  0  0  0 
  8  9  1  0  0  0  0 
  9 10  2  0  0  0  0 
  9 11  1  0  0  0  0 
 11 12  2  0  0  0  0 
 12 13  1  0  0  0  0 
 13 14  2  0  0  0  0 
 14 15  1  0  0  0  0 
 15 16  2  0  0  0  0 
 11 16  1  0  0  0  0 
 16 17  1  0  0  0  0 
 17 18  1  0  0  0  0 
 18 19  1  0  0  0  0 
 19 20  1  0  0  0  0 
 19 21  1  0  0  0  0 
 19 22  1  0  0  0  0 
 13 23  1  0  0  0  0 
 23 24  1  0  0  0  0 
 24 25  1  0  0  0  0 
 25 26  1  0  0  0  0 
 25 27  1  0  0  0  0 
 25 28  1  0  0  0  0 
 24 29  1  0  0  0  0 
M  END
> <Rank>
4

> <Priority_score>
1.6600000000000001

> <Reaction_type>
aliphatic hydroxylation

> <Parent_ID>
1

> <Parent_InChI>
InChI=1S/C17H20F6N2O3/c18-16(19,20)9-27-12-4-5-14(28-10-17(21,22)23)13(7-12)15(26)25-8-11-3-1-2-6-24-11/h4-5,7,11,24H,1-3,6,8-10H2,(H,25,26)/t11-/m0/s1

> <Parent_SMILES>
C1([H])([H])C([H])([H])C([H])([H])N([H])[C@@]([H])(C1([H])[H])C([H])([H])N([H])C(=O)C2=C([H])C(=C([H])C([H])=C2OC([H])([H])C(F)(F)F)OC([H])([H])C(F)(F)F

$$$$

  CDK     1104240537

 23 24  0  0  0  0  0  0  0  0999 V2000
   -0.3700   -1.7100    0.0000 C   0  0  0  0  0  0  0  0  0  0  0  0
   -1.6700   -0.9600    0.0000 C   0  0  0  0  0  0  0  0  0  0  0  0
   -1.6700    0.5400    0.0000 C   0  0  0  0  0  0  0  0  0  0  0  0
   -0.3700    1.2900    0.0000 N   0  0  0  0  0  0  0  0  0  0  0  0
    0.9300    0.5400    0.0000 C   0  0  1  0  0  0  0  0  0  0  0  0
    0.9300   -0.9600    0.0000 C   0  0  0  0  0  0  0  0  0  0  0  0
    2.2289    1.2902    0.0000 C   0  0  0  0  0  0  0  0  0  0  0  0
    3.5281    0.5404    0.0000 N   0  0  0  0  0  0  0  0  0  0  0  0
    4.8270    1.2906    0.0000 C   0  0  0  0  0  0  0  0  0  0  0  0
    4.8268    2.7906    0.0000 O   0  0  0  0  0  0  0  0  0  0  0  0
    6.1262    0.5408    0.0000 C   0  0  0  0  0  0  0  0  0  0  0  0
    7.4252    1.2908    0.0000 C   0  0  0  0  0  0  0  0  0  0  0  0
    8.7247    0.5400    0.0000 C   0  0  0  0  0  0  0  0  0  0  0  0
    8.7252   -0.9608    0.0000 C   0  0  0  0  0  0  0  0  0  0  0  0
    7.4262   -1.7108    0.0000 C   0  0  0  0  0  0  0  0  0  0  0  0
    6.1266   -0.9600    0.0000 C   0  0  0  0  0  0  0  0  0  0  0  0
    4.8276   -1.7100    0.0000 O   0  0  0  0  0  0  0  0  0  0  0  0
    4.8276   -3.2100    0.0000 C   0  0  0  0  0  0  0  0  0  0  0  0
    6.1266   -3.9600    0.0000 C   0  0  0  0  0  0  0  0  0  0  0  0
    6.1266   -5.4600    0.0000 F   0  0  0  0  0  0  0  0  0  0  0  0
    7.6038   -4.2205    0.0000 F   0  0  0  0  0  0  0  0  0  0  0  0
    6.6397   -2.5505    0.0000 F   0  0  0  0  0  0  0  0  0  0  0  0
   10.0237    1.2900    0.0000 O   0  0  0  0  0  0  0  0  0  0  0  0
  1  2  1  0  0  0  0 
  2  3  1  0  0  0  0 
  3  4  1  0  0  0  0 
  4  5  1  0  0  0  0 
  5  6  1  0  0  0  0 
  1  6  1  0  0  0  0 
  5  7  1  6  0  0  0 
  7  8  1  0  0  0  0 
  8  9  1  0  0  0  0 
  9 10  2  0  0  0  0 
  9 11  1  0  0  0  0 
 11 12  2  0  0  0  0 
 12 13  1  0  0  0  0 
 13 14  2  0  0  0  0 
 14 15  1  0  0  0  0 
 15 16  2  0  0  0  0 
 11 16  1  0  0  0  0 
 16 17  1  0  0  0  0 
 17 18  1  0  0  0  0 
 18 19  1  0  0  0  0 
 19 20  1  0  0  0  0 
 19 21  1  0  0  0  0 
 19 22  1  0  0  0  0 
 13 23  1  0  0  0  0 
M  END
> <Rank>
4

> <Priority_score>
1.6600000000000001

> <Reaction_type>
oxidative ether cleavage to one alcohol and one aldehyde/ketone

> <Parent_ID>
1

> <Parent_InChI>
InChI=1S/C17H20F6N2O3/c18-16(19,20)9-27-12-4-5-14(28-10-17(21,22)23)13(7-12)15(26)25-8-11-3-1-2-6-24-11/h4-5,7,11,24H,1-3,6,8-10H2,(H,25,26)/t11-/m0/s1

> <Parent_SMILES>
C1([H])([H])C([H])([H])C([H])([H])N([H])[C@@]([H])(C1([H])[H])C([H])([H])N([H])C(=O)C2=C([H])C(=C([H])C([H])=C2OC([H])([H])C(F)(F)F)OC([H])([H])C(F)(F)F

$$$$

  CDK     1104240537

 23 24  0  0  0  0  0  0  0  0999 V2000
   12.6209    2.7898    0.0000 C   0  0  0  0  0  0  0  0  0  0  0  0
   13.9209    2.0398    0.0000 C   0  0  0  0  0  0  0  0  0  0  0  0
   13.9209    0.5398    0.0000 C   0  0  0  0  0  0  0  0  0  0  0  0
   12.6209   -0.2102    0.0000 N   0  0  0  0  0  0  0  0  0  0  0  0
   11.3209    0.5398    0.0000 C   0  0  1  0  0  0  0  0  0  0  0  0
   11.3209    2.0398    0.0000 C   0  0  0  0  0  0  0  0  0  0  0  0
   10.0219   -0.2104    0.0000 C   0  0  0  0  0  0  0  0  0  0  0  0
    8.7228    0.5394    0.0000 N   0  0  0  0  0  0  0  0  0  0  0  0
    7.4239   -0.2108    0.0000 C   0  0  0  0  0  0  0  0  0  0  0  0
    7.4241   -1.7108    0.0000 O   0  0  0  0  0  0  0  0  0  0  0  0
    6.1247    0.5390    0.0000 C   0  0  0  0  0  0  0  0  0  0  0  0
    4.8257   -0.2110    0.0000 C   0  0  0  0  0  0  0  0  0  0  0  0
    3.5262    0.5398    0.0000 C   0  0  0  0  0  0  0  0  0  0  0  0
    3.5257    2.0406    0.0000 C   0  0  0  0  0  0  0  0  0  0  0  0
    4.8247    2.7906    0.0000 C   0  0  0  0  0  0  0  0  0  0  0  0
    6.1242    2.0398    0.0000 C   0  0  0  0  0  0  0  0  0  0  0  0
    7.4233    2.7898    0.0000 O   0  0  0  0  0  0  0  0  0  0  0  0
    2.2271   -0.2102    0.0000 O   0  0  0  0  0  0  0  0  0  0  0  0
    0.9281    0.5398    0.0000 C   0  0  0  0  0  0  0  0  0  0  0  0
   -0.3710   -0.2102    0.0000 C   0  0  0  0  0  0  0  0  0  0  0  0
   -1.6700    0.5398    0.0000 F   0  0  0  0  0  0  0  0  0  0  0  0
   -1.3351   -1.3593    0.0000 F   0  0  0  0  0  0  0  0  0  0  0  0
    0.5932   -1.3593    0.0000 F   0  0  0  0  0  0  0  0  0  0  0  0
  1  2  1  0  0  0  0 
  2  3  1  0  0  0  0 
  3  4  1  0  0  0  0 
  4  5  1  0  0  0  0 
  5  6  1  0  0  0  0 
  1  6  1  0  0  0  0 
  5  7  1  6  0  0  0 
  7  8  1  0  0  0  0 
  8  9  1  0  0  0  0 
  9 10  2  0  0  0  0 
  9 11  1  0  0  0  0 
 11 12  2  0  0  0  0 
 12 13  1  0  0  0  0 
 13 14  2  0  0  0  0 
 14 15  1  0  0  0  0 
 15 16  2  0  0  0  0 
 11 16  1  0  0  0  0 
 16 17  1  0  0  0  0 
 13 18  1  0  0  0  0 
 18 19  1  0  0  0  0 
 19 20  1  0  0  0  0 
 20 21  1  0  0  0  0 
 20 22  1  0  0  0  0 
 20 23  1  0  0  0  0 
M  END
> <Rank>
7

> <Priority_score>
1.31

> <Reaction_type>
oxidative ether cleavage to one alcohol and one aldehyde/ketone

> <Parent_ID>
1

> <Parent_InChI>
InChI=1S/C17H20F6N2O3/c18-16(19,20)9-27-12-4-5-14(28-10-17(21,22)23)13(7-12)15(26)25-8-11-3-1-2-6-24-11/h4-5,7,11,24H,1-3,6,8-10H2,(H,25,26)/t11-/m0/s1

> <Parent_SMILES>
C1([H])([H])C([H])([H])C([H])([H])N([H])[C@@]([H])(C1([H])[H])C([H])([H])N([H])C(=O)C2=C([H])C(=C([H])C([H])=C2OC([H])([H])C(F)(F)F)OC([H])([H])C(F)(F)F

$$$$

  CDK     1104240537

 29 30  0  0  0  0  0  0  0  0999 V2000
   -0.3700   -1.7100    0.0000 C   0  0  0  0  0  0  0  0  0  0  0  0
   -1.6700   -0.9600    0.0000 C   0  0  0  0  0  0  0  0  0  0  0  0
   -1.6700    0.5400    0.0000 C   0  0  0  0  0  0  0  0  0  0  0  0
   -0.3700    1.2900    0.0000 N   0  0  0  0  0  0  0  0  0  0  0  0
    0.9300    0.5400    0.0000 C   0  0  1  0  0  0  0  0  0  0  0  0
    0.9300   -0.9600    0.0000 C   0  0  0  0  0  0  0  0  0  0  0  0
    2.2289    1.2902    0.0000 C   0  0  0  0  0  0  0  0  0  0  0  0
    3.5281    0.5404    0.0000 N   0  0  0  0  0  0  0  0  0  0  0  0
    4.8270    1.2906    0.0000 C   0  0  0  0  0  0  0  0  0  0  0  0
    4.8268    2.7906    0.0000 O   0  0  0  0  0  0  0  0  0  0  0  0
    6.1262    0.5408    0.0000 C   0  0  0  0  0  0  0  0  0  0  0  0
    7.4252    1.2908    0.0000 C   0  0  0  0  0  0  0  0  0  0  0  0
    8.7247    0.5400    0.0000 C   0  0  0  0  0  0  0  0  0  0  0  0
    8.7252   -0.9608    0.0000 C   0  0  0  0  0  0  0  0  0  0  0  0
    7.4262   -1.7108    0.0000 C   0  0  0  0  0  0  0  0  0  0  0  0
    6.1266   -0.9600    0.0000 C   0  0  0  0  0  0  0  0  0  0  0  0
    4.8276   -1.7100    0.0000 O   0  0  0  0  0  0  0  0  0  0  0  0
    4.8276   -3.2100    0.0000 C   0  0  0  0  0  0  0  0  0  0  0  0
    6.1266   -3.9600    0.0000 C   0  0  0  0  0  0  0  0  0  0  0  0
    6.1266   -5.4600    0.0000 F   0  0  0  0  0  0  0  0  0  0  0  0
    7.6038   -4.2205    0.0000 F   0  0  0  0  0  0  0  0  0  0  0  0
    6.6397   -2.5505    0.0000 F   0  0  0  0  0  0  0  0  0  0  0  0
    3.5286   -3.9600    0.0000 O   0  0  0  0  0  0  0  0  0  0  0  0
   10.0237    1.2900    0.0000 O   0  0  0  0  0  0  0  0  0  0  0  0
   11.3228    0.5400    0.0000 C   0  0  0  0  0  0  0  0  0  0  0  0
   12.6218    1.2900    0.0000 C   0  0  0  0  0  0  0  0  0  0  0  0
   13.9209    0.5400    0.0000 F   0  0  0  0  0  0  0  0  0  0  0  0
   13.5860    2.4391    0.0000 F   0  0  0  0  0  0  0  0  0  0  0  0
   11.6576    2.4391    0.0000 F   0  0  0  0  0  0  0  0  0  0  0  0
  1  2  1  0  0  0  0 
  2  3  1  0  0  0  0 
  3  4  1  0  0  0  0 
  4  5  1  0  0  0  0 
  5  6  1  0  0  0  0 
  1  6  1  0  0  0  0 
  5  7  1  6  0  0  0 
  7  8  1  0  0  0  0 
  8  9  1  0  0  0  0 
  9 10  2  0  0  0  0 
  9 11  1  0  0  0  0 
 11 12  2  0  0  0  0 
 12 13  1  0  0  0  0 
 13 14  2  0  0  0  0 
 14 15  1  0  0  0  0 
 15 16  2  0  0  0  0 
 11 16  1  0  0  0  0 
 16 17  1  0  0  0  0 
 17 18  1  0  0  0  0 
 18 19  1  0  0  0  0 
 19 20  1  0  0  0  0 
 19 21  1  0  0  0  0 
 19 22  1  0  0  0  0 
 18 23  1  0  0  0  0 
 13 24  1  0  0  0  0 
 24 25  1  0  0  0  0 
 25 26  1  0  0  0  0 
 26 27  1  0  0  0  0 
 26 28  1  0  0  0  0 
 26 29  1  0  0  0  0 
M  END
> <Rank>
7

> <Priority_score>
1.31

> <Reaction_type>
aliphatic hydroxylation

> <Parent_ID>
1

> <Parent_InChI>
InChI=1S/C17H20F6N2O3/c18-16(19,20)9-27-12-4-5-14(28-10-17(21,22)23)13(7-12)15(26)25-8-11-3-1-2-6-24-11/h4-5,7,11,24H,1-3,6,8-10H2,(H,25,26)/t11-/m0/s1

> <Parent_SMILES>
C1([H])([H])C([H])([H])C([H])([H])N([H])[C@@]([H])(C1([H])[H])C([H])([H])N([H])C(=O)C2=C([H])C(=C([H])C([H])=C2OC([H])([H])C(F)(F)F)OC([H])([H])C(F)(F)F

$$$$

  CDK     1104240537

 28 30  0  0  0  0  0  0  0  0999 V2000
   -7.7019   -1.5298    0.0000 C   0  0  0  0  0  0  0  0  0  0  0  0
   -7.7019   -3.0298    0.0000 C   0  0  0  0  0  0  0  0  0  0  0  0
   -6.4029   -3.7798    0.0000 C   0  0  1  0  0  0  0  0  0  0  0  0
   -4.1346   -4.6587    0.0000 C   0  0  0  0  0  0  0  0  0  0  0  0
   -3.2086   -3.0548    0.0000 N   0  0  0  0  0  0  0  0  0  0  0  0
   -5.1038   -1.5298    0.0000 C   0  0  0  0  0  0  0  0  0  0  0  0
   -6.4029   -0.7798    0.0000 C   0  0  0  0  0  0  0  0  0  0  0  0
   -5.1038   -3.0298    0.0000 N   0  0  0  0  0  0  0  0  0  0  0  0
   -1.7341   -2.7791    0.0000 C   0  0  0  0  0  0  0  0  0  0  0  0
   -1.2356   -1.3644    0.0000 O   0  0  0  0  0  0  0  0  0  0  0  0
   -0.7582   -3.9182    0.0000 C   0  0  0  0  0  0  0  0  0  0  0  0
    0.7163   -3.6428    0.0000 C   0  0  0  0  0  0  0  0  0  0  0  0
    1.6923   -4.7830    0.0000 C   0  0  0  0  0  0  0  0  0  0  0  0
    1.1937   -6.1986    0.0000 C   0  0  0  0  0  0  0  0  0  0  0  0
   -0.2808   -6.4740    0.0000 C   0  0  0  0  0  0  0  0  0  0  0  0
   -1.2567   -5.3338    0.0000 C   0  0  0  0  0  0  0  0  0  0  0  0
   -2.7312   -5.6092    0.0000 O   0  0  0  0  0  0  0  0  0  0  0  0
   -3.2299   -7.0239    0.0000 C   0  0  0  0  0  0  0  0  0  0  0  0
   -2.2542   -8.1631    0.0000 C   0  0  0  0  0  0  0  0  0  0  0  0
   -2.7529   -9.5778    0.0000 F   0  0  0  0  0  0  0  0  0  0  0  0
   -0.9476   -8.8999    0.0000 F   0  0  0  0  0  0  0  0  0  0  0  0
   -1.3017   -7.0044    0.0000 F   0  0  0  0  0  0  0  0  0  0  0  0
    3.1668   -4.5075    0.0000 O   0  0  0  0  0  0  0  0  0  0  0  0
    4.1425   -5.6468    0.0000 C   0  0  0  0  0  0  0  0  0  0  0  0
    5.6170   -5.3713    0.0000 C   0  0  0  0  0  0  0  0  0  0  0  0
    6.5928   -6.5106    0.0000 F   0  0  0  0  0  0  0  0  0  0  0  0
    6.9084   -4.6082    0.0000 F   0  0  0  0  0  0  0  0  0  0  0  0
    5.0898   -3.9671    0.0000 F   0  0  0  0  0  0  0  0  0  0  0  0
  1  2  1  0  0  0  0 
  2  3  1  0  0  0  0 
  3  4  1  0  0  0  0 
  4  5  1  0  0  0  0 
  5  6  1  0  0  0  0 
  6  7  1  0  0  0  0 
  1  7  1  0  0  0  0 
  6  8  1  0  0  0  0 
  3  8  1  1  0  0  0 
  5  9  1  0  0  0  0 
  9 10  2  0  0  0  0 
  9 11  1  0  0  0  0 
 11 12  2  0  0  0  0 
 12 13  1  0  0  0  0 
 13 14  2  0  0  0  0 
 14 15  1  0  0  0  0 
 15 16  2  0  0  0  0 
 11 16  1  0  0  0  0 
 16 17  1  0  0  0  0 
 17 18  1  0  0  0  0 
 18 19  1  0  0  0  0 
 19 20  1  0  0  0  0 
 19 21  1  0  0  0  0 
 19 22  1  0  0  0  0 
 13 23  1  0  0  0  0 
 23 24  1  0  0  0  0 
 24 25  1  0  0  0  0 
 25 26  1  0  0  0  0 
 25 27  1  0  0  0  0 
 25 28  1  0  0  0  0 
M  END
> <Rank>
9

> <Priority_score>
0.62

> <Reaction_type>
cyclization to 5-membered NCN ring

> <Parent_ID>
1

> <Parent_InChI>
InChI=1S/C17H20F6N2O3/c18-16(19,20)9-27-12-4-5-14(28-10-17(21,22)23)13(7-12)15(26)25-8-11-3-1-2-6-24-11/h4-5,7,11,24H,1-3,6,8-10H2,(H,25,26)/t11-/m0/s1

> <Parent_SMILES>
C1([H])([H])C([H])([H])C([H])([H])N([H])[C@@]([H])(C1([H])[H])C([H])([H])N([H])C(=O)C2=C([H])C(=C([H])C([H])=C2OC([H])([H])C(F)(F)F)OC([H])([H])C(F)(F)F

$$$$

  CDK     1104240537

 28 29  0  0  0  0  0  0  0  0999 V2000
   -0.3700   -1.7100    0.0000 C   0  0  0  0  0  0  0  0  0  0  0  0
   -1.6700   -0.9600    0.0000 C   0  0  0  0  0  0  0  0  0  0  0  0
   -1.6700    0.5400    0.0000 C   0  0  0  0  0  0  0  0  0  0  0  0
   -0.3700    1.2900    0.0000 N   0  0  0  0  0  0  0  0  0  0  0  0
    0.9300    0.5400    0.0000 C   0  0  1  0  0  0  0  0  0  0  0  0
    0.9300   -0.9600    0.0000 C   0  0  0  0  0  0  0  0  0  0  0  0
    2.2289    1.2902    0.0000 C   0  0  0  0  0  0  0  0  0  0  0  0
    3.5281    0.5404    0.0000 N   0  0  0  0  0  0  0  0  0  0  0  0
    4.8270    1.2906    0.0000 C   0  0  0  0  0  0  0  0  0  0  0  0
    4.8268    2.7906    0.0000 O   0  0  0  0  0  0  0  0  0  0  0  0
    6.1262    0.5408    0.0000 C   0  0  0  0  0  0  0  0  0  0  0  0
    7.4252    1.2908    0.0000 C   0  0  0  0  0  0  0  0  0  0  0  0
    8.7247    0.5400    0.0000 C   0  0  0  0  0  0  0  0  0  0  0  0
    8.7252   -0.9608    0.0000 C   0  0  0  0  0  0  0  0  0  0  0  0
    7.4262   -1.7108    0.0000 C   0  0  0  0  0  0  0  0  0  0  0  0
    6.1266   -0.9600    0.0000 C   0  0  0  0  0  0  0  0  0  0  0  0
    4.8276   -1.7100    0.0000 O   0  0  0  0  0  0  0  0  0  0  0  0
    4.8276   -3.2100    0.0000 C   0  0  0  0  0  0  0  0  0  0  0  0
    6.1266   -3.9600    0.0000 C   0  0  0  0  0  0  0  0  0  0  0  0
    6.1266   -5.4600    0.0000 F   0  0  0  0  0  0  0  0  0  0  0  0
    7.6038   -4.2205    0.0000 F   0  0  0  0  0  0  0  0  0  0  0  0
    6.6397   -2.5505    0.0000 F   0  0  0  0  0  0  0  0  0  0  0  0
   10.0237    1.2900    0.0000 O   0  0  0  0  0  0  0  0  0  0  0  0
   11.3228    0.5400    0.0000 C   0  0  0  0  0  0  0  0  0  0  0  0
   12.6218    1.2900    0.0000 C   0  0  0  0  0  0  0  0  0  0  0  0
   13.9209    0.5400    0.0000 F   0  0  0  0  0  0  0  0  0  0  0  0
   13.5860    2.4391    0.0000 F   0  0  0  0  0  0  0  0  0  0  0  0
   11.6576    2.4391    0.0000 F   0  0  0  0  0  0  0  0  0  0  0  0
  1  2  1  0  0  0  0 
  2  3  1  0  0  0  0 
  3  4  2  0  0  0  0 
  4  5  1  0  0  0  0 
  5  6  1  0  0  0  0 
  1  6  1  0  0  0  0 
  5  7  1  6  0  0  0 
  7  8  1  0  0  0  0 
  8  9  1  0  0  0  0 
  9 10  2  0  0  0  0 
  9 11  1  0  0  0  0 
 11 12  2  0  0  0  0 
 12 13  1  0  0  0  0 
 13 14  2  0  0  0  0 
 14 15  1  0  0  0  0 
 15 16  2  0  0  0  0 
 11 16  1  0  0  0  0 
 16 17  1  0  0  0  0 
 17 18  1  0  0  0  0 
 18 19  1  0  0  0  0 
 19 20  1  0  0  0  0 
 19 21  1  0  0  0  0 
 19 22  1  0  0  0  0 
 13 23  1  0  0  0  0 
 23 24  1  0  0  0  0 
 24 25  1  0  0  0  0 
 25 26  1  0  0  0  0 
 25 27  1  0  0  0  0 
 25 28  1  0  0  0  0 
M  END
> <Rank>
9

> <Priority_score>
0.62

> <Reaction_type>
dehydration of N-C bond

> <Parent_ID>
1

> <Parent_InChI>
InChI=1S/C17H20F6N2O3/c18-16(19,20)9-27-12-4-5-14(28-10-17(21,22)23)13(7-12)15(26)25-8-11-3-1-2-6-24-11/h4-5,7,11,24H,1-3,6,8-10H2,(H,25,26)/t11-/m0/s1

> <Parent_SMILES>
C1([H])([H])C([H])([H])C([H])([H])N([H])[C@@]([H])(C1([H])[H])C([H])([H])N([H])C(=O)C2=C([H])C(=C([H])C([H])=C2OC([H])([H])C(F)(F)F)OC([H])([H])C(F)(F)F

$$$$

  CDK     1104240537

 28 29  0  0  0  0  0  0  0  0999 V2000
   -0.3700   -1.7100    0.0000 C   0  0  0  0  0  0  0  0  0  0  0  0
   -1.6700   -0.9600    0.0000 C   0  0  0  0  0  0  0  0  0  0  0  0
   -1.6700    0.5400    0.0000 C   0  0  0  0  0  0  0  0  0  0  0  0
   -0.3700    1.2900    0.0000 N   0  0  0  0  0  0  0  0  0  0  0  0
    0.9300    0.5400    0.0000 C   0  0  1  0  0  0  0  0  0  0  0  0
    0.9300   -0.9600    0.0000 C   0  0  0  0  0  0  0  0  0  0  0  0
    2.2289    1.2902    0.0000 C   0  0  0  0  0  0  0  0  0  0  0  0
    3.5281    0.5404    0.0000 N   0  0  0  0  0  0  0  0  0  0  0  0
    4.8270    1.2906    0.0000 C   0  0  0  0  0  0  0  0  0  0  0  0
    4.8268    2.7906    0.0000 O   0  0  0  0  0  0  0  0  0  0  0  0
    6.1262    0.5408    0.0000 C   0  0  0  0  0  0  0  0  0  0  0  0
    7.4252    1.2908    0.0000 C   0  0  0  0  0  0  0  0  0  0  0  0
    8.7247    0.5400    0.0000 C   0  0  0  0  0  0  0  0  0  0  0  0
    8.7252   -0.9608    0.0000 C   0  0  0  0  0  0  0  0  0  0  0  0
    7.4262   -1.7108    0.0000 C   0  0  0  0  0  0  0  0  0  0  0  0
    6.1266   -0.9600    0.0000 C   0  0  0  0  0  0  0  0  0  0  0  0
    4.8276   -1.7100    0.0000 O   0  0  0  0  0  0  0  0  0  0  0  0
    4.8276   -3.2100    0.0000 C   0  0  0  0  0  0  0  0  0  0  0  0
    6.1266   -3.9600    0.0000 C   0  0  0  0  0  0  0  0  0  0  0  0
    6.1266   -5.4600    0.0000 F   0  0  0  0  0  0  0  0  0  0  0  0
    7.6038   -4.2205    0.0000 F   0  0  0  0  0  0  0  0  0  0  0  0
    6.6397   -2.5505    0.0000 F   0  0  0  0  0  0  0  0  0  0  0  0
   10.0237    1.2900    0.0000 O   0  0  0  0  0  0  0  0  0  0  0  0
   11.3228    0.5400    0.0000 C   0  0  0  0  0  0  0  0  0  0  0  0
   12.6218    1.2900    0.0000 C   0  0  0  0  0  0  0  0  0  0  0  0
   13.9209    0.5400    0.0000 F   0  0  0  0  0  0  0  0  0  0  0  0
   13.5860    2.4391    0.0000 F   0  0  0  0  0  0  0  0  0  0  0  0
   11.6576    2.4391    0.0000 F   0  0  0  0  0  0  0  0  0  0  0  0
  1  2  1  0  0  0  0 
  2  3  1  0  0  0  0 
  3  4  2  0  0  0  0 
  4  5  1  0  0  0  0 
  5  6  1  0  0  0  0 
  1  6  1  0  0  0  0 
  5  7  1  6  0  0  0 
  7  8  1  0  0  0  0 
  8  9  1  0  0  0  0 
  9 10  2  0  0  0  0 
  9 11  1  0  0  0  0 
 11 12  2  0  0  0  0 
 12 13  1  0  0  0  0 
 13 14  2  0  0  0  0 
 14 15  1  0  0  0  0 
 15 16  2  0  0  0  0 
 11 16  1  0  0  0  0 
 16 17  1  0  0  0  0 
 17 18  1  0  0  0  0 
 18 19  1  0  0  0  0 
 19 20  1  0  0  0  0 
 19 21  1  0  0  0  0 
 19 22  1  0  0  0  0 
 13 23  1  0  0  0  0 
 23 24  1  0  0  0  0 
 24 25  1  0  0  0  0 
 25 26  1  0  0  0  0 
 25 27  1  0  0  0  0 
 25 28  1  0  0  0  0 
M  CHG  1   4   1
M  END
> <Rank>
9

> <Priority_score>
0.62

> <Reaction_type>
dehydration of N-C bond

> <Parent_ID>
1

> <Parent_InChI>
InChI=1S/C17H20F6N2O3/c18-16(19,20)9-27-12-4-5-14(28-10-17(21,22)23)13(7-12)15(26)25-8-11-3-1-2-6-24-11/h4-5,7,11,24H,1-3,6,8-10H2,(H,25,26)/t11-/m0/s1

> <Parent_SMILES>
C1([H])([H])C([H])([H])C([H])([H])N([H])[C@@]([H])(C1([H])[H])C([H])([H])N([H])C(=O)C2=C([H])C(=C([H])C([H])=C2OC([H])([H])C(F)(F)F)OC([H])([H])C(F)(F)F

$$$$

  CDK     1104240537

 28 29  0  0  0  0  0  0  0  0999 V2000
   -0.3700   -1.7100    0.0000 C   0  0  0  0  0  0  0  0  0  0  0  0
   -1.6700   -0.9600    0.0000 C   0  0  0  0  0  0  0  0  0  0  0  0
   -1.6700    0.5400    0.0000 C   0  0  0  0  0  0  0  0  0  0  0  0
   -0.3700    1.2900    0.0000 N   0  0  0  0  0  0  0  0  0  0  0  0
    0.9300    0.5400    0.0000 C   0  0  1  0  0  0  0  0  0  0  0  0
    0.9300   -0.9600    0.0000 C   0  0  0  0  0  0  0  0  0  0  0  0
    2.2289    1.2902    0.0000 C   0  0  0  0  0  0  0  0  0  0  0  0
    3.5281    0.5404    0.0000 N   0  0  0  0  0  0  0  0  0  0  0  0
    4.8270    1.2906    0.0000 C   0  0  0  0  0  0  0  0  0  0  0  0
    4.8268    2.7906    0.0000 O   0  0  0  0  0  0  0  0  0  0  0  0
    6.1262    0.5408    0.0000 C   0  0  0  0  0  0  0  0  0  0  0  0
    7.4252    1.2908    0.0000 C   0  0  0  0  0  0  0  0  0  0  0  0
    8.7247    0.5400    0.0000 C   0  0  0  0  0  0  0  0  0  0  0  0
    8.7252   -0.9608    0.0000 C   0  0  0  0  0  0  0  0  0  0  0  0
    7.4262   -1.7108    0.0000 C   0  0  0  0  0  0  0  0  0  0  0  0
    6.1266   -0.9600    0.0000 C   0  0  0  0  0  0  0  0  0  0  0  0
    4.8276   -1.7100    0.0000 O   0  0  0  0  0  0  0  0  0  0  0  0
    4.8276   -3.2100    0.0000 C   0  0  0  0  0  0  0  0  0  0  0  0
    6.1266   -3.9600    0.0000 C   0  0  0  0  0  0  0  0  0  0  0  0
    6.1266   -5.4600    0.0000 F   0  0  0  0  0  0  0  0  0  0  0  0
    7.6038   -4.2205    0.0000 F   0  0  0  0  0  0  0  0  0  0  0  0
    6.6397   -2.5505    0.0000 F   0  0  0  0  0  0  0  0  0  0  0  0
   10.0237    1.2900    0.0000 O   0  0  0  0  0  0  0  0  0  0  0  0
   11.3228    0.5400    0.0000 C   0  0  0  0  0  0  0  0  0  0  0  0
   12.6218    1.2900    0.0000 C   0  0  0  0  0  0  0  0  0  0  0  0
   13.9209    0.5400    0.0000 F   0  0  0  0  0  0  0  0  0  0  0  0
   13.5860    2.4391    0.0000 F   0  0  0  0  0  0  0  0  0  0  0  0
   11.6576    2.4391    0.0000 F   0  0  0  0  0  0  0  0  0  0  0  0
  1  2  1  0  0  0  0 
  2  3  2  0  0  0  0 
  3  4  1  0  0  0  0 
  4  5  1  0  0  0  0 
  5  6  1  0  0  0  0 
  1  6  1  0  0  0  0 
  5  7  1  6  0  0  0 
  7  8  1  0  0  0  0 
  8  9  1  0  0  0  0 
  9 10  2  0  0  0  0 
  9 11  1  0  0  0  0 
 11 12  2  0  0  0  0 
 12 13  1  0  0  0  0 
 13 14  2  0  0  0  0 
 14 15  1  0  0  0  0 
 15 16  2  0  0  0  0 
 11 16  1  0  0  0  0 
 16 17  1  0  0  0  0 
 17 18  1  0  0  0  0 
 18 19  1  0  0  0  0 
 19 20  1  0  0  0  0 
 19 21  1  0  0  0  0 
 19 22  1  0  0  0  0 
 13 23  1  0  0  0  0 
 23 24  1  0  0  0  0 
 24 25  1  0  0  0  0 
 25 26  1  0  0  0  0 
 25 27  1  0  0  0  0 
 25 28  1  0  0  0  0 
M  END
> <Rank>
9

> <Priority_score>
0.62

> <Reaction_type>
alkyl dehydrogenation

> <Parent_ID>
1

> <Parent_InChI>
InChI=1S/C17H20F6N2O3/c18-16(19,20)9-27-12-4-5-14(28-10-17(21,22)23)13(7-12)15(26)25-8-11-3-1-2-6-24-11/h4-5,7,11,24H,1-3,6,8-10H2,(H,25,26)/t11-/m0/s1

> <Parent_SMILES>
C1([H])([H])C([H])([H])C([H])([H])N([H])[C@@]([H])(C1([H])[H])C([H])([H])N([H])C(=O)C2=C([H])C(=C([H])C([H])=C2OC([H])([H])C(F)(F)F)OC([H])([H])C(F)(F)F

$$$$

  CDK     1104240537

 18 19  0  0  0  0  0  0  0  0999 V2000
    8.7237    2.7898    0.0000 C   0  0  0  0  0  0  0  0  0  0  0  0
   10.0237    2.0398    0.0000 C   0  0  0  0  0  0  0  0  0  0  0  0
   10.0237    0.5398    0.0000 C   0  0  0  0  0  0  0  0  0  0  0  0
    8.7237   -0.2102    0.0000 N   0  0  0  0  0  0  0  0  0  0  0  0
    7.4237    0.5398    0.0000 C   0  0  1  0  0  0  0  0  0  0  0  0
    7.4237    2.0398    0.0000 C   0  0  0  0  0  0  0  0  0  0  0  0
    6.1248   -0.2104    0.0000 C   0  0  0  0  0  0  0  0  0  0  0  0
    4.8257    0.5394    0.0000 N   0  0  0  0  0  0  0  0  0  0  0  0
    3.5268   -0.2108    0.0000 C   0  0  0  0  0  0  0  0  0  0  0  0
    3.5270   -1.7108    0.0000 O   0  0  0  0  0  0  0  0  0  0  0  0
    2.2276    0.5390    0.0000 C   0  0  0  0  0  0  0  0  0  0  0  0
    0.9286   -0.2110    0.0000 C   0  0  0  0  0  0  0  0  0  0  0  0
   -0.3710    0.5398    0.0000 C   0  0  0  0  0  0  0  0  0  0  0  0
   -1.6700   -0.2102    0.0000 O   0  0  0  0  0  0  0  0  0  0  0  0
   -0.3714    2.0406    0.0000 C   0  0  0  0  0  0  0  0  0  0  0  0
    0.9276    2.7906    0.0000 C   0  0  0  0  0  0  0  0  0  0  0  0
    2.2271    2.0398    0.0000 C   0  0  0  0  0  0  0  0  0  0  0  0
    3.5262    2.7898    0.0000 O   0  0  0  0  0  0  0  0  0  0  0  0
  1  2  1  0  0  0  0 
  2  3  1  0  0  0  0 
  3  4  1  0  0  0  0 
  4  5  1  0  0  0  0 
  5  6  1  0  0  0  0 
  1  6  1  0  0  0  0 
  5  7  1  6  0  0  0 
  7  8  1  0  0  0  0 
  8  9  1  0  0  0  0 
  9 10  2  0  0  0  0 
  9 11  1  0  0  0  0 
 11 12  2  0  0  0  0 
 12 13  1  0  0  0  0 
 13 14  2  0  0  0  0 
 13 15  1  0  0  0  0 
 15 16  2  0  0  0  0 
 16 17  1  0  0  0  0 
 11 17  1  0  0  0  0 
 17 18  2  0  0  0  0 
M  END
> <Rank>
13

> <Priority_score>
0.332

> <Reaction_type>
oxidation of 4-substituted anisole to quinone

> <Parent_ID>
1

> <Parent_InChI>
InChI=1S/C17H20F6N2O3/c18-16(19,20)9-27-12-4-5-14(28-10-17(21,22)23)13(7-12)15(26)25-8-11-3-1-2-6-24-11/h4-5,7,11,24H,1-3,6,8-10H2,(H,25,26)/t11-/m0/s1

> <Parent_SMILES>
C1([H])([H])C([H])([H])C([H])([H])N([H])[C@@]([H])(C1([H])[H])C([H])([H])N([H])C(=O)C2=C([H])C(=C([H])C([H])=C2OC([H])([H])C(F)(F)F)OC([H])([H])C(F)(F)F

$$$$

  CDK     1104240537

  5  4  0  0  0  0  0  0  0  0999 V2000
    0.6488    0.5223    0.0000 C   0  0  0  0  0  0  0  0  0  0  0  0
    1.3988   -0.7767    0.0000 C   0  0  0  0  0  0  0  0  0  0  0  0
    2.8988   -0.7767    0.0000 F   0  0  0  0  0  0  0  0  0  0  0  0
   -0.0107   -1.2898    0.0000 F   0  0  0  0  0  0  0  0  0  0  0  0
    1.6593   -2.2539    0.0000 F   0  0  0  0  0  0  0  0  0  0  0  0
  1  2  1  0  0  0  0 
  2  3  1  0  0  0  0 
  2  4  1  0  0  0  0 
  2  5  1  0  0  0  0 
M  END
> <Rank>
13

> <Priority_score>
0.332

> <Reaction_type>
oxidation of 4-substituted anisole to quinone

> <Parent_ID>
1

> <Parent_InChI>
InChI=1S/C17H20F6N2O3/c18-16(19,20)9-27-12-4-5-14(28-10-17(21,22)23)13(7-12)15(26)25-8-11-3-1-2-6-24-11/h4-5,7,11,24H,1-3,6,8-10H2,(H,25,26)/t11-/m0/s1

> <Parent_SMILES>
C1([H])([H])C([H])([H])C([H])([H])N([H])[C@@]([H])(C1([H])[H])C([H])([H])N([H])C(=O)C2=C([H])C(=C([H])C([H])=C2OC([H])([H])C(F)(F)F)OC([H])([H])C(F)(F)F

$$$$

  CDK     1104240537

  6  5  0  0  0  0  0  0  0  0999 V2000
    2.5981   -0.0000    0.0000 C   0  0  0  0  0  0  0  0  0  0  0  0
    1.2990   -0.7500    0.0000 C   0  0  0  0  0  0  0  0  0  0  0  0
    0.0000    0.0000    0.0000 F   0  0  0  0  0  0  0  0  0  0  0  0
    0.3349   -1.8991    0.0000 F   0  0  0  0  0  0  0  0  0  0  0  0
    2.2632   -1.8991    0.0000 F   0  0  0  0  0  0  0  0  0  0  0  0
    3.8971   -0.7500    0.0000 O   0  0  0  0  0  0  0  0  0  0  0  0
  1  2  1  0  0  0  0 
  2  3  1  0  0  0  0 
  2  4  1  0  0  0  0 
  2  5  1  0  0  0  0 
  1  6  1  0  0  0  0 
M  END
> <Rank>
13

> <Priority_score>
0.332

> <Reaction_type>
oxidation of 4-substituted anisole to quinone

> <Parent_ID>
1

> <Parent_InChI>
InChI=1S/C17H20F6N2O3/c18-16(19,20)9-27-12-4-5-14(28-10-17(21,22)23)13(7-12)15(26)25-8-11-3-1-2-6-24-11/h4-5,7,11,24H,1-3,6,8-10H2,(H,25,26)/t11-/m0/s1

> <Parent_SMILES>
C1([H])([H])C([H])([H])C([H])([H])N([H])[C@@]([H])(C1([H])[H])C([H])([H])N([H])C(=O)C2=C([H])C(=C([H])C([H])=C2OC([H])([H])C(F)(F)F)OC([H])([H])C(F)(F)F

$$$$
