
  CDK     1104240506

 28 32  0  0  0  0  0  0  0  0999 V2000
    4.7587    7.2241    0.0000 C   0  0  0  0  0  0  0  0  0  0  0  0
    3.2911    6.9141    0.0000 O   0  0  0  0  0  0  0  0  0  0  0  0
    2.8258    5.4880    0.0000 C   0  0  0  0  0  0  0  0  0  0  0  0
    3.8291    4.3718    0.0000 C   0  0  0  0  0  0  0  0  0  0  0  0
    3.3638    2.9458    0.0000 C   0  0  0  0  0  0  0  0  0  0  0  0
    1.8953    2.6360    0.0000 C   0  0  0  0  0  0  0  0  0  0  0  0
    0.8920    3.7523    0.0000 C   0  0  0  0  0  0  0  0  0  0  0  0
    1.3573    5.1783    0.0000 C   0  0  0  0  0  0  0  0  0  0  0  0
    0.3552    6.2944    0.0000 O   0  0  0  0  0  0  0  0  0  0  0  0
    0.8207    7.7203    0.0000 C   0  0  0  0  0  0  0  0  0  0  0  0
   -0.1815    8.8364    0.0000 O   0  0  0  0  0  0  0  0  0  0  0  0
    1.4300    1.2100    0.0000 C   0  0  1  0  0  0  0  0  0  0  0  0
    0.0000    0.7500    0.0000 C   0  0  1  0  0  0  0  0  0  0  0  0
   -1.4300    1.2100    0.0000 C   0  0  0  0  0  0  0  0  0  0  0  0
   -2.3100    0.0000    0.0000 O   0  0  0  0  0  0  0  0  0  0  0  0
   -1.4300   -1.2100    0.0000 C   0  0  2  0  0  0  0  0  0  0  0  0
   -1.8953   -2.6360    0.0000 C   0  0  0  0  0  0  0  0  0  0  0  0
   -0.8803   -3.7674    0.0000 C   0  0  0  0  0  0  0  0  0  0  0  0
   -1.3553   -5.2146    0.0000 C   0  0  0  0  0  0  0  0  0  0  0  0
   -2.8231   -5.5103    0.0000 C   0  0  0  0  0  0  0  0  0  0  0  0
   -3.8381   -4.3789    0.0000 C   0  0  0  0  0  0  0  0  0  0  0  0
   -3.3853   -2.9518    0.0000 C   0  0  0  0  0  0  0  0  0  0  0  0
   -5.1963   -5.0063    0.0000 O   0  0  0  0  0  0  0  0  0  0  0  0
   -4.9676   -6.5341    0.0000 C   0  0  0  0  0  0  0  0  0  0  0  0
   -3.5713   -6.7727    0.0000 O   0  0  0  0  0  0  0  0  0  0  0  0
    0.0000   -0.7500    0.0000 C   0  0  1  0  0  0  0  0  0  0  0  0
    1.4300   -1.2100    0.0000 C   0  0  0  0  0  0  0  0  0  0  0  0
    2.3100    0.0000    0.0000 O   0  0  0  0  0  0  0  0  0  0  0  0
  1  2  1  0  0  0  0 
  2  3  1  0  0  0  0 
  3  4  2  0  0  0  0 
  4  5  1  0  0  0  0 
  5  6  2  0  0  0  0 
  6  7  1  0  0  0  0 
  7  8  2  0  0  0  0 
  3  8  1  0  0  0  0 
  8  9  1  0  0  0  0 
  9 10  1  0  0  0  0 
 10 11  1  0  0  0  0 
 12  6  1  6  0  0  0 
 12 13  1  0  0  0  0 
 13 14  1  6  0  0  0 
 14 15  1  0  0  0  0 
 15 16  1  0  0  0  0 
 16 17  1  1  0  0  0 
 17 18  2  0  0  0  0 
 18 19  1  0  0  0  0 
 19 20  2  0  0  0  0 
 20 21  1  0  0  0  0 
 21 22  2  0  0  0  0 
 17 22  1  0  0  0  0 
 21 23  1  0  0  0  0 
 23 24  1  0  0  0  0 
 24 25  1  0  0  0  0 
 20 25  1  0  0  0  0 
 16 26  1  0  0  0  0 
 13 26  1  0  0  0  0 
 26 27  1  6  0  0  0 
 27 28  1  0  0  0  0 
 12 28  1  0  0  0  0 
M  END
> <Rank>
1

> <Priority_score>
2.72

> <Reaction_type>
aliphatic hydroxylation

> <Parent_ID>
1

> <Parent_InChI>
InChI=1S/C21H22O6/c1-22-16-5-3-12(7-18(16)23-2)20-14-9-25-21(15(14)10-24-20)13-4-6-17-19(8-13)27-11-26-17/h3-8,14-15,20-21H,9-11H2,1-2H3/t14-,15-,20-,21+/m0/s1

> <Parent_SMILES>
C([H])([H])([H])OC1=C([H])C([H])=C(C([H])=C1OC([H])([H])[H])[C@@]2([H])[C@@]3([H])C([H])([H])O[C@]([H])(C4=C([H])C([H])=C5C(=C4[H])OC([H])([H])O5)[C@@]3([H])C([H])([H])O2

$$$$

  CDK     1104240506

 26 30  0  0  0  0  0  0  0  0999 V2000
    4.7587    7.2241    0.0000 C   0  0  0  0  0  0  0  0  0  0  0  0
    3.2911    6.9141    0.0000 O   0  0  0  0  0  0  0  0  0  0  0  0
    2.8258    5.4880    0.0000 C   0  0  0  0  0  0  0  0  0  0  0  0
    3.8291    4.3718    0.0000 C   0  0  0  0  0  0  0  0  0  0  0  0
    3.3638    2.9458    0.0000 C   0  0  0  0  0  0  0  0  0  0  0  0
    1.8953    2.6360    0.0000 C   0  0  0  0  0  0  0  0  0  0  0  0
    0.8920    3.7523    0.0000 C   0  0  0  0  0  0  0  0  0  0  0  0
    1.3573    5.1783    0.0000 C   0  0  0  0  0  0  0  0  0  0  0  0
    0.3552    6.2944    0.0000 O   0  0  0  0  0  0  0  0  0  0  0  0
    1.4300    1.2100    0.0000 C   0  0  1  0  0  0  0  0  0  0  0  0
    0.0000    0.7500    0.0000 C   0  0  1  0  0  0  0  0  0  0  0  0
   -1.4300    1.2100    0.0000 C   0  0  0  0  0  0  0  0  0  0  0  0
   -2.3100    0.0000    0.0000 O   0  0  0  0  0  0  0  0  0  0  0  0
   -1.4300   -1.2100    0.0000 C   0  0  2  0  0  0  0  0  0  0  0  0
   -1.8953   -2.6360    0.0000 C   0  0  0  0  0  0  0  0  0  0  0  0
   -0.8803   -3.7674    0.0000 C   0  0  0  0  0  0  0  0  0  0  0  0
   -1.3553   -5.2146    0.0000 C   0  0  0  0  0  0  0  0  0  0  0  0
   -2.8231   -5.5103    0.0000 C   0  0  0  0  0  0  0  0  0  0  0  0
   -3.8381   -4.3789    0.0000 C   0  0  0  0  0  0  0  0  0  0  0  0
   -3.3853   -2.9518    0.0000 C   0  0  0  0  0  0  0  0  0  0  0  0
   -5.1963   -5.0063    0.0000 O   0  0  0  0  0  0  0  0  0  0  0  0
   -4.9676   -6.5341    0.0000 C   0  0  0  0  0  0  0  0  0  0  0  0
   -3.5713   -6.7727    0.0000 O   0  0  0  0  0  0  0  0  0  0  0  0
    0.0000   -0.7500    0.0000 C   0  0  1  0  0  0  0  0  0  0  0  0
    1.4300   -1.2100    0.0000 C   0  0  0  0  0  0  0  0  0  0  0  0
    2.3100    0.0000    0.0000 O   0  0  0  0  0  0  0  0  0  0  0  0
  1  2  1  0  0  0  0 
  2  3  1  0  0  0  0 
  3  4  2  0  0  0  0 
  4  5  1  0  0  0  0 
  5  6  2  0  0  0  0 
  6  7  1  0  0  0  0 
  7  8  2  0  0  0  0 
  3  8  1  0  0  0  0 
  8  9  1  0  0  0  0 
 10  6  1  6  0  0  0 
 10 11  1  0  0  0  0 
 11 12  1  6  0  0  0 
 12 13  1  0  0  0  0 
 13 14  1  0  0  0  0 
 14 15  1  1  0  0  0 
 15 16  2  0  0  0  0 
 16 17  1  0  0  0  0 
 17 18  2  0  0  0  0 
 18 19  1  0  0  0  0 
 19 20  2  0  0  0  0 
 15 20  1  0  0  0  0 
 19 21  1  0  0  0  0 
 21 22  1  0  0  0  0 
 22 23  1  0  0  0  0 
 18 23  1  0  0  0  0 
 14 24  1  0  0  0  0 
 11 24  1  0  0  0  0 
 24 25  1  6  0  0  0 
 25 26  1  0  0  0  0 
 10 26  1  0  0  0  0 
M  END
> <Rank>
1

> <Priority_score>
2.72

> <Reaction_type>
oxidative ether cleavage to one alcohol and one aldehyde/ketone

> <Parent_ID>
1

> <Parent_InChI>
InChI=1S/C21H22O6/c1-22-16-5-3-12(7-18(16)23-2)20-14-9-25-21(15(14)10-24-20)13-4-6-17-19(8-13)27-11-26-17/h3-8,14-15,20-21H,9-11H2,1-2H3/t14-,15-,20-,21+/m0/s1

> <Parent_SMILES>
C([H])([H])([H])OC1=C([H])C([H])=C(C([H])=C1OC([H])([H])[H])[C@@]2([H])[C@@]3([H])C([H])([H])O[C@]([H])(C4=C([H])C([H])=C5C(=C4[H])OC([H])([H])O5)[C@@]3([H])C([H])([H])O2

$$$$

  CDK     1104240506

 26 30  0  0  0  0  0  0  0  0999 V2000
    0.8207    7.7203    0.0000 C   0  0  0  0  0  0  0  0  0  0  0  0
    0.3552    6.2944    0.0000 O   0  0  0  0  0  0  0  0  0  0  0  0
    1.3573    5.1783    0.0000 C   0  0  0  0  0  0  0  0  0  0  0  0
    0.8920    3.7523    0.0000 C   0  0  0  0  0  0  0  0  0  0  0  0
    1.8953    2.6360    0.0000 C   0  0  0  0  0  0  0  0  0  0  0  0
    3.3638    2.9458    0.0000 C   0  0  0  0  0  0  0  0  0  0  0  0
    3.8291    4.3718    0.0000 C   0  0  0  0  0  0  0  0  0  0  0  0
    2.8258    5.4880    0.0000 C   0  0  0  0  0  0  0  0  0  0  0  0
    3.2911    6.9141    0.0000 O   0  0  0  0  0  0  0  0  0  0  0  0
    1.4300    1.2100    0.0000 C   0  0  1  0  0  0  0  0  0  0  0  0
    0.0000    0.7500    0.0000 C   0  0  1  0  0  0  0  0  0  0  0  0
   -1.4300    1.2100    0.0000 C   0  0  0  0  0  0  0  0  0  0  0  0
   -2.3100    0.0000    0.0000 O   0  0  0  0  0  0  0  0  0  0  0  0
   -1.4300   -1.2100    0.0000 C   0  0  2  0  0  0  0  0  0  0  0  0
   -1.8953   -2.6360    0.0000 C   0  0  0  0  0  0  0  0  0  0  0  0
   -0.8803   -3.7674    0.0000 C   0  0  0  0  0  0  0  0  0  0  0  0
   -1.3553   -5.2146    0.0000 C   0  0  0  0  0  0  0  0  0  0  0  0
   -2.8231   -5.5103    0.0000 C   0  0  0  0  0  0  0  0  0  0  0  0
   -3.8381   -4.3789    0.0000 C   0  0  0  0  0  0  0  0  0  0  0  0
   -3.3853   -2.9518    0.0000 C   0  0  0  0  0  0  0  0  0  0  0  0
   -5.1963   -5.0063    0.0000 O   0  0  0  0  0  0  0  0  0  0  0  0
   -4.9676   -6.5341    0.0000 C   0  0  0  0  0  0  0  0  0  0  0  0
   -3.5713   -6.7727    0.0000 O   0  0  0  0  0  0  0  0  0  0  0  0
    0.0000   -0.7500    0.0000 C   0  0  1  0  0  0  0  0  0  0  0  0
    1.4300   -1.2100    0.0000 C   0  0  0  0  0  0  0  0  0  0  0  0
    2.3100    0.0000    0.0000 O   0  0  0  0  0  0  0  0  0  0  0  0
  1  2  1  0  0  0  0 
  2  3  1  0  0  0  0 
  3  4  2  0  0  0  0 
  4  5  1  0  0  0  0 
  5  6  2  0  0  0  0 
  6  7  1  0  0  0  0 
  7  8  2  0  0  0  0 
  3  8  1  0  0  0  0 
  8  9  1  0  0  0  0 
 10  5  1  6  0  0  0 
 10 11  1  0  0  0  0 
 11 12  1  6  0  0  0 
 12 13  1  0  0  0  0 
 13 14  1  0  0  0  0 
 14 15  1  1  0  0  0 
 15 16  2  0  0  0  0 
 16 17  1  0  0  0  0 
 17 18  2  0  0  0  0 
 18 19  1  0  0  0  0 
 19 20  2  0  0  0  0 
 15 20  1  0  0  0  0 
 19 21  1  0  0  0  0 
 21 22  1  0  0  0  0 
 22 23  1  0  0  0  0 
 18 23  1  0  0  0  0 
 14 24  1  0  0  0  0 
 11 24  1  0  0  0  0 
 24 25  1  6  0  0  0 
 25 26  1  0  0  0  0 
 10 26  1  0  0  0  0 
M  END
> <Rank>
3

> <Priority_score>
2.42

> <Reaction_type>
oxidative ether cleavage to one alcohol and one aldehyde/ketone

> <Parent_ID>
1

> <Parent_InChI>
InChI=1S/C21H22O6/c1-22-16-5-3-12(7-18(16)23-2)20-14-9-25-21(15(14)10-24-20)13-4-6-17-19(8-13)27-11-26-17/h3-8,14-15,20-21H,9-11H2,1-2H3/t14-,15-,20-,21+/m0/s1

> <Parent_SMILES>
C([H])([H])([H])OC1=C([H])C([H])=C(C([H])=C1OC([H])([H])[H])[C@@]2([H])[C@@]3([H])C([H])([H])O[C@]([H])(C4=C([H])C([H])=C5C(=C4[H])OC([H])([H])O5)[C@@]3([H])C([H])([H])O2

$$$$

  CDK     1104240506

 28 32  0  0  0  0  0  0  0  0999 V2000
    0.8207    7.7203    0.0000 C   0  0  0  0  0  0  0  0  0  0  0  0
    0.3552    6.2944    0.0000 O   0  0  0  0  0  0  0  0  0  0  0  0
    1.3573    5.1783    0.0000 C   0  0  0  0  0  0  0  0  0  0  0  0
    0.8920    3.7523    0.0000 C   0  0  0  0  0  0  0  0  0  0  0  0
    1.8953    2.6360    0.0000 C   0  0  0  0  0  0  0  0  0  0  0  0
    3.3638    2.9458    0.0000 C   0  0  0  0  0  0  0  0  0  0  0  0
    3.8291    4.3718    0.0000 C   0  0  0  0  0  0  0  0  0  0  0  0
    2.8258    5.4880    0.0000 C   0  0  0  0  0  0  0  0  0  0  0  0
    3.2911    6.9141    0.0000 O   0  0  0  0  0  0  0  0  0  0  0  0
    4.7587    7.2241    0.0000 C   0  0  0  0  0  0  0  0  0  0  0  0
    5.2240    8.6501    0.0000 O   0  0  0  0  0  0  0  0  0  0  0  0
    1.4300    1.2100    0.0000 C   0  0  1  0  0  0  0  0  0  0  0  0
    0.0000    0.7500    0.0000 C   0  0  1  0  0  0  0  0  0  0  0  0
   -1.4300    1.2100    0.0000 C   0  0  0  0  0  0  0  0  0  0  0  0
   -2.3100    0.0000    0.0000 O   0  0  0  0  0  0  0  0  0  0  0  0
   -1.4300   -1.2100    0.0000 C   0  0  2  0  0  0  0  0  0  0  0  0
   -1.8953   -2.6360    0.0000 C   0  0  0  0  0  0  0  0  0  0  0  0
   -0.8803   -3.7674    0.0000 C   0  0  0  0  0  0  0  0  0  0  0  0
   -1.3553   -5.2146    0.0000 C   0  0  0  0  0  0  0  0  0  0  0  0
   -2.8231   -5.5103    0.0000 C   0  0  0  0  0  0  0  0  0  0  0  0
   -3.8381   -4.3789    0.0000 C   0  0  0  0  0  0  0  0  0  0  0  0
   -3.3853   -2.9518    0.0000 C   0  0  0  0  0  0  0  0  0  0  0  0
   -5.1963   -5.0063    0.0000 O   0  0  0  0  0  0  0  0  0  0  0  0
   -4.9676   -6.5341    0.0000 C   0  0  0  0  0  0  0  0  0  0  0  0
   -3.5713   -6.7727    0.0000 O   0  0  0  0  0  0  0  0  0  0  0  0
    0.0000   -0.7500    0.0000 C   0  0  1  0  0  0  0  0  0  0  0  0
    1.4300   -1.2100    0.0000 C   0  0  0  0  0  0  0  0  0  0  0  0
    2.3100    0.0000    0.0000 O   0  0  0  0  0  0  0  0  0  0  0  0
  1  2  1  0  0  0  0 
  2  3  1  0  0  0  0 
  3  4  2  0  0  0  0 
  4  5  1  0  0  0  0 
  5  6  2  0  0  0  0 
  6  7  1  0  0  0  0 
  7  8  2  0  0  0  0 
  3  8  1  0  0  0  0 
  8  9  1  0  0  0  0 
  9 10  1  0  0  0  0 
 10 11  1  0  0  0  0 
 12  5  1  6  0  0  0 
 12 13  1  0  0  0  0 
 13 14  1  6  0  0  0 
 14 15  1  0  0  0  0 
 15 16  1  0  0  0  0 
 16 17  1  1  0  0  0 
 17 18  2  0  0  0  0 
 18 19  1  0  0  0  0 
 19 20  2  0  0  0  0 
 20 21  1  0  0  0  0 
 21 22  2  0  0  0  0 
 17 22  1  0  0  0  0 
 21 23  1  0  0  0  0 
 23 24  1  0  0  0  0 
 24 25  1  0  0  0  0 
 20 25  1  0  0  0  0 
 16 26  1  0  0  0  0 
 13 26  1  0  0  0  0 
 26 27  1  6  0  0  0 
 27 28  1  0  0  0  0 
 12 28  1  0  0  0  0 
M  END
> <Rank>
3

> <Priority_score>
2.42

> <Reaction_type>
aliphatic hydroxylation

> <Parent_ID>
1

> <Parent_InChI>
InChI=1S/C21H22O6/c1-22-16-5-3-12(7-18(16)23-2)20-14-9-25-21(15(14)10-24-20)13-4-6-17-19(8-13)27-11-26-17/h3-8,14-15,20-21H,9-11H2,1-2H3/t14-,15-,20-,21+/m0/s1

> <Parent_SMILES>
C([H])([H])([H])OC1=C([H])C([H])=C(C([H])=C1OC([H])([H])[H])[C@@]2([H])[C@@]3([H])C([H])([H])O[C@]([H])(C4=C([H])C([H])=C5C(=C4[H])OC([H])([H])O5)[C@@]3([H])C([H])([H])O2

$$$$

  CDK     1104240506

 28 31  0  0  0  0  0  0  0  0999 V2000
    4.7587    7.2241    0.0000 C   0  0  0  0  0  0  0  0  0  0  0  0
    3.2911    6.9141    0.0000 O   0  0  0  0  0  0  0  0  0  0  0  0
    2.8258    5.4880    0.0000 C   0  0  0  0  0  0  0  0  0  0  0  0
    3.8291    4.3718    0.0000 C   0  0  0  0  0  0  0  0  0  0  0  0
    3.3638    2.9458    0.0000 C   0  0  0  0  0  0  0  0  0  0  0  0
    1.8953    2.6360    0.0000 C   0  0  0  0  0  0  0  0  0  0  0  0
    0.8920    3.7523    0.0000 C   0  0  0  0  0  0  0  0  0  0  0  0
    1.3573    5.1783    0.0000 C   0  0  0  0  0  0  0  0  0  0  0  0
    0.3552    6.2944    0.0000 O   0  0  0  0  0  0  0  0  0  0  0  0
    0.8207    7.7203    0.0000 C   0  0  0  0  0  0  0  0  0  0  0  0
    1.4300    1.2100    0.0000 C   0  0  1  0  0  0  0  0  0  0  0  0
    0.0000    0.7500    0.0000 C   0  0  1  0  0  0  0  0  0  0  0  0
   -1.4300    1.2100    0.0000 C   0  0  0  0  0  0  0  0  0  0  0  0
   -2.3100    0.0000    0.0000 O   0  0  0  0  0  0  0  0  0  0  0  0
   -1.4300   -1.2100    0.0000 C   0  0  2  0  0  0  0  0  0  0  0  0
   -1.8953   -2.6360    0.0000 C   0  0  0  0  0  0  0  0  0  0  0  0
   -3.3638   -2.9458    0.0000 C   0  0  0  0  0  0  0  0  0  0  0  0
   -3.8291   -4.3718    0.0000 C   0  0  0  0  0  0  0  0  0  0  0  0
   -2.8258   -5.4880    0.0000 C   0  0  0  0  0  0  0  0  0  0  0  0
   -1.3573   -5.1783    0.0000 C   0  0  0  0  0  0  0  0  0  0  0  0
   -0.8920   -3.7523    0.0000 C   0  0  0  0  0  0  0  0  0  0  0  0
   -0.3552   -6.2944    0.0000 O   0  0  0  0  0  0  0  0  0  0  0  0
   -0.8207   -7.7203    0.0000 C   0  0  0  0  0  0  0  0  0  0  0  0
    0.1815   -8.8364    0.0000 O   0  0  0  0  0  0  0  0  0  0  0  0
   -3.2911   -6.9141    0.0000 O   0  0  0  0  0  0  0  0  0  0  0  0
    0.0000   -0.7500    0.0000 C   0  0  1  0  0  0  0  0  0  0  0  0
    1.4300   -1.2100    0.0000 C   0  0  0  0  0  0  0  0  0  0  0  0
    2.3100    0.0000    0.0000 O   0  0  0  0  0  0  0  0  0  0  0  0
  1  2  1  0  0  0  0 
  2  3  1  0  0  0  0 
  3  4  2  0  0  0  0 
  4  5  1  0  0  0  0 
  5  6  2  0  0  0  0 
  6  7  1  0  0  0  0 
  7  8  2  0  0  0  0 
  3  8  1  0  0  0  0 
  8  9  1  0  0  0  0 
  9 10  1  0  0  0  0 
 11  6  1  6  0  0  0 
 11 12  1  0  0  0  0 
 12 13  1  6  0  0  0 
 13 14  1  0  0  0  0 
 14 15  1  0  0  0  0 
 15 16  1  1  0  0  0 
 16 17  2  0  0  0  0 
 17 18  1  0  0  0  0 
 18 19  2  0  0  0  0 
 19 20  1  0  0  0  0 
 20 21  2  0  0  0  0 
 16 21  1  0  0  0  0 
 20 22  1  0  0  0  0 
 22 23  1  0  0  0  0 
 23 24  2  0  0  0  0 
 19 25  1  0  0  0  0 
 15 26  1  0  0  0  0 
 12 26  1  0  0  0  0 
 26 27  1  6  0  0  0 
 27 28  1  0  0  0  0 
 11 28  1  0  0  0  0 
M  END
> <Rank>
5

> <Priority_score>
2.3200000000000003

> <Reaction_type>
oxidative ether cleavage to one alcohol and one aldehyde/ketone

> <Parent_ID>
1

> <Parent_InChI>
InChI=1S/C21H22O6/c1-22-16-5-3-12(7-18(16)23-2)20-14-9-25-21(15(14)10-24-20)13-4-6-17-19(8-13)27-11-26-17/h3-8,14-15,20-21H,9-11H2,1-2H3/t14-,15-,20-,21+/m0/s1

> <Parent_SMILES>
C([H])([H])([H])OC1=C([H])C([H])=C(C([H])=C1OC([H])([H])[H])[C@@]2([H])[C@@]3([H])C([H])([H])O[C@]([H])(C4=C([H])C([H])=C5C(=C4[H])OC([H])([H])O5)[C@@]3([H])C([H])([H])O2

$$$$

  CDK     1104240506

 28 32  0  0  0  0  0  0  0  0999 V2000
    4.7587    7.2241    0.0000 C   0  0  0  0  0  0  0  0  0  0  0  0
    3.2911    6.9141    0.0000 O   0  0  0  0  0  0  0  0  0  0  0  0
    2.8258    5.4880    0.0000 C   0  0  0  0  0  0  0  0  0  0  0  0
    3.8291    4.3718    0.0000 C   0  0  0  0  0  0  0  0  0  0  0  0
    3.3638    2.9458    0.0000 C   0  0  0  0  0  0  0  0  0  0  0  0
    1.8953    2.6360    0.0000 C   0  0  0  0  0  0  0  0  0  0  0  0
    0.8920    3.7523    0.0000 C   0  0  0  0  0  0  0  0  0  0  0  0
    1.3573    5.1783    0.0000 C   0  0  0  0  0  0  0  0  0  0  0  0
    0.3552    6.2944    0.0000 O   0  0  0  0  0  0  0  0  0  0  0  0
    0.8207    7.7203    0.0000 C   0  0  0  0  0  0  0  0  0  0  0  0
    1.4300    1.2100    0.0000 C   0  0  1  0  0  0  0  0  0  0  0  0
    0.0000    0.7500    0.0000 C   0  0  1  0  0  0  0  0  0  0  0  0
   -1.4300    1.2100    0.0000 C   0  0  0  0  0  0  0  0  0  0  0  0
   -2.3100    0.0000    0.0000 O   0  0  0  0  0  0  0  0  0  0  0  0
   -1.4300   -1.2100    0.0000 C   0  0  2  0  0  0  0  0  0  0  0  0
   -1.8953   -2.6360    0.0000 C   0  0  0  0  0  0  0  0  0  0  0  0
   -0.8931   -3.7521    0.0000 C   0  0  0  0  0  0  0  0  0  0  0  0
   -1.3594   -5.1787    0.0000 C   0  0  0  0  0  0  0  0  0  0  0  0
   -2.8277   -5.4892    0.0000 C   0  0  0  0  0  0  0  0  0  0  0  0
   -3.8299   -4.3731    0.0000 C   0  0  0  0  0  0  0  0  0  0  0  0
   -3.3636   -2.9465    0.0000 C   0  0  0  0  0  0  0  0  0  0  0  0
   -5.2012   -4.9862    0.0000 O   0  0  0  0  0  0  0  0  0  0  0  0
   -5.0476   -6.4744    0.0000 C   0  0  0  0  0  0  0  0  0  0  0  0
   -6.1637   -7.4766    0.0000 O   0  0  0  0  0  0  0  0  0  0  0  0
   -3.5844   -6.7868    0.0000 O   0  0  0  0  0  0  0  0  0  0  0  0
    0.0000   -0.7500    0.0000 C   0  0  1  0  0  0  0  0  0  0  0  0
    1.4300   -1.2100    0.0000 C   0  0  0  0  0  0  0  0  0  0  0  0
    2.3100    0.0000    0.0000 O   0  0  0  0  0  0  0  0  0  0  0  0
  1  2  1  0  0  0  0 
  2  3  1  0  0  0  0 
  3  4  2  0  0  0  0 
  4  5  1  0  0  0  0 
  5  6  2  0  0  0  0 
  6  7  1  0  0  0  0 
  7  8  2  0  0  0  0 
  3  8  1  0  0  0  0 
  8  9  1  0  0  0  0 
  9 10  1  0  0  0  0 
 11  6  1  6  0  0  0 
 11 12  1  0  0  0  0 
 12 13  1  6  0  0  0 
 13 14  1  0  0  0  0 
 14 15  1  0  0  0  0 
 15 16  1  1  0  0  0 
 16 17  2  0  0  0  0 
 17 18  1  0  0  0  0 
 18 19  2  0  0  0  0 
 19 20  1  0  0  0  0 
 20 21  2  0  0  0  0 
 16 21  1  0  0  0  0 
 20 22  1  0  0  0  0 
 22 23  1  0  0  0  0 
 23 24  1  0  0  0  0 
 23 25  1  0  0  0  0 
 19 25  1  0  0  0  0 
 15 26  1  0  0  0  0 
 12 26  1  0  0  0  0 
 26 27  1  6  0  0  0 
 27 28  1  0  0  0  0 
 11 28  1  0  0  0  0 
M  END
> <Rank>
5

> <Priority_score>
2.3200000000000003

> <Reaction_type>
aliphatic hydroxylation

> <Parent_ID>
1

> <Parent_InChI>
InChI=1S/C21H22O6/c1-22-16-5-3-12(7-18(16)23-2)20-14-9-25-21(15(14)10-24-20)13-4-6-17-19(8-13)27-11-26-17/h3-8,14-15,20-21H,9-11H2,1-2H3/t14-,15-,20-,21+/m0/s1

> <Parent_SMILES>
C([H])([H])([H])OC1=C([H])C([H])=C(C([H])=C1OC([H])([H])[H])[C@@]2([H])[C@@]3([H])C([H])([H])O[C@]([H])(C4=C([H])C([H])=C5C(=C4[H])OC([H])([H])O5)[C@@]3([H])C([H])([H])O2

$$$$

  CDK     1104240506

 26 29  0  0  0  0  0  0  0  0999 V2000
    4.7587    7.2241    0.0000 C   0  0  0  0  0  0  0  0  0  0  0  0
    3.2911    6.9141    0.0000 O   0  0  0  0  0  0  0  0  0  0  0  0
    2.8258    5.4880    0.0000 C   0  0  0  0  0  0  0  0  0  0  0  0
    3.8291    4.3718    0.0000 C   0  0  0  0  0  0  0  0  0  0  0  0
    3.3638    2.9458    0.0000 C   0  0  0  0  0  0  0  0  0  0  0  0
    1.8953    2.6360    0.0000 C   0  0  0  0  0  0  0  0  0  0  0  0
    0.8920    3.7523    0.0000 C   0  0  0  0  0  0  0  0  0  0  0  0
    1.3573    5.1783    0.0000 C   0  0  0  0  0  0  0  0  0  0  0  0
    0.3552    6.2944    0.0000 O   0  0  0  0  0  0  0  0  0  0  0  0
    0.8207    7.7203    0.0000 C   0  0  0  0  0  0  0  0  0  0  0  0
    1.4300    1.2100    0.0000 C   0  0  1  0  0  0  0  0  0  0  0  0
    0.0000    0.7500    0.0000 C   0  0  1  0  0  0  0  0  0  0  0  0
   -1.4300    1.2100    0.0000 C   0  0  0  0  0  0  0  0  0  0  0  0
   -2.3100    0.0000    0.0000 O   0  0  0  0  0  0  0  0  0  0  0  0
   -1.4300   -1.2100    0.0000 C   0  0  2  0  0  0  0  0  0  0  0  0
   -1.8953   -2.6360    0.0000 C   0  0  0  0  0  0  0  0  0  0  0  0
   -3.3638   -2.9458    0.0000 C   0  0  0  0  0  0  0  0  0  0  0  0
   -3.8291   -4.3718    0.0000 C   0  0  0  0  0  0  0  0  0  0  0  0
   -2.8258   -5.4880    0.0000 C   0  0  0  0  0  0  0  0  0  0  0  0
   -1.3573   -5.1783    0.0000 C   0  0  0  0  0  0  0  0  0  0  0  0
   -0.8920   -3.7523    0.0000 C   0  0  0  0  0  0  0  0  0  0  0  0
   -0.3552   -6.2944    0.0000 O   0  0  0  0  0  0  0  0  0  0  0  0
   -3.2911   -6.9141    0.0000 O   0  0  0  0  0  0  0  0  0  0  0  0
    0.0000   -0.7500    0.0000 C   0  0  1  0  0  0  0  0  0  0  0  0
    1.4300   -1.2100    0.0000 C   0  0  0  0  0  0  0  0  0  0  0  0
    2.3100    0.0000    0.0000 O   0  0  0  0  0  0  0  0  0  0  0  0
  1  2  1  0  0  0  0 
  2  3  1  0  0  0  0 
  3  4  2  0  0  0  0 
  4  5  1  0  0  0  0 
  5  6  2  0  0  0  0 
  6  7  1  0  0  0  0 
  7  8  2  0  0  0  0 
  3  8  1  0  0  0  0 
  8  9  1  0  0  0  0 
  9 10  1  0  0  0  0 
 11  6  1  6  0  0  0 
 11 12  1  0  0  0  0 
 12 13  1  6  0  0  0 
 13 14  1  0  0  0  0 
 14 15  1  0  0  0  0 
 15 16  1  1  0  0  0 
 16 17  2  0  0  0  0 
 17 18  1  0  0  0  0 
 18 19  2  0  0  0  0 
 19 20  1  0  0  0  0 
 20 21  2  0  0  0  0 
 16 21  1  0  0  0  0 
 20 22  1  0  0  0  0 
 19 23  1  0  0  0  0 
 15 24  1  0  0  0  0 
 12 24  1  0  0  0  0 
 24 25  1  6  0  0  0 
 25 26  1  0  0  0  0 
 11 26  1  0  0  0  0 
M  END
> <Rank>
5

> <Priority_score>
2.3200000000000003

> <Reaction_type>
O-dealkylation of methylenedioxyphenyl

> <Parent_ID>
1

> <Parent_InChI>
InChI=1S/C21H22O6/c1-22-16-5-3-12(7-18(16)23-2)20-14-9-25-21(15(14)10-24-20)13-4-6-17-19(8-13)27-11-26-17/h3-8,14-15,20-21H,9-11H2,1-2H3/t14-,15-,20-,21+/m0/s1

> <Parent_SMILES>
C([H])([H])([H])OC1=C([H])C([H])=C(C([H])=C1OC([H])([H])[H])[C@@]2([H])[C@@]3([H])C([H])([H])O[C@]([H])(C4=C([H])C([H])=C5C(=C4[H])OC([H])([H])O5)[C@@]3([H])C([H])([H])O2

$$$$

  CDK     1104240506

  3  2  0  0  0  0  0  0  0  0999 V2000
    1.2990   -0.7500    0.0000 C   0  0  0  0  0  0  0  0  0  0  0  0
    0.0000    0.0000    0.0000 O   0  0  0  0  0  0  0  0  0  0  0  0
    2.5981   -0.0000    0.0000 O   0  0  0  0  0  0  0  0  0  0  0  0
  1  2  2  0  0  0  0 
  1  3  1  0  0  0  0 
M  CHG  1   3  -1
M  END
> <Rank>
5

> <Priority_score>
2.3200000000000003

> <Reaction_type>
O-dealkylation of methylenedioxyphenyl

> <Parent_ID>
1

> <Parent_InChI>
InChI=1S/C21H22O6/c1-22-16-5-3-12(7-18(16)23-2)20-14-9-25-21(15(14)10-24-20)13-4-6-17-19(8-13)27-11-26-17/h3-8,14-15,20-21H,9-11H2,1-2H3/t14-,15-,20-,21+/m0/s1

> <Parent_SMILES>
C([H])([H])([H])OC1=C([H])C([H])=C(C([H])=C1OC([H])([H])[H])[C@@]2([H])[C@@]3([H])C([H])([H])O[C@]([H])(C4=C([H])C([H])=C5C(=C4[H])OC([H])([H])O5)[C@@]3([H])C([H])([H])O2

$$$$

  CDK     1104240506

 28 31  0  0  0  0  0  0  0  0999 V2000
    4.7587    7.2241    0.0000 C   0  0  0  0  0  0  0  0  0  0  0  0
    3.2911    6.9141    0.0000 O   0  0  0  0  0  0  0  0  0  0  0  0
    2.8258    5.4880    0.0000 C   0  0  0  0  0  0  0  0  0  0  0  0
    3.8291    4.3718    0.0000 C   0  0  0  0  0  0  0  0  0  0  0  0
    3.3638    2.9458    0.0000 C   0  0  0  0  0  0  0  0  0  0  0  0
    1.8953    2.6360    0.0000 C   0  0  0  0  0  0  0  0  0  0  0  0
    0.8920    3.7523    0.0000 C   0  0  0  0  0  0  0  0  0  0  0  0
    1.3573    5.1783    0.0000 C   0  0  0  0  0  0  0  0  0  0  0  0
    0.3552    6.2944    0.0000 O   0  0  0  0  0  0  0  0  0  0  0  0
    0.8207    7.7203    0.0000 C   0  0  0  0  0  0  0  0  0  0  0  0
    1.4300    1.2100    0.0000 C   0  0  1  0  0  0  0  0  0  0  0  0
    0.0000    0.7500    0.0000 C   0  0  1  0  0  0  0  0  0  0  0  0
   -1.4300    1.2100    0.0000 C   0  0  0  0  0  0  0  0  0  0  0  0
   -2.3100    0.0000    0.0000 O   0  0  0  0  0  0  0  0  0  0  0  0
   -1.4300   -1.2100    0.0000 C   0  0  2  0  0  0  0  0  0  0  0  0
   -1.8953   -2.6360    0.0000 C   0  0  0  0  0  0  0  0  0  0  0  0
   -3.3638   -2.9458    0.0000 C   0  0  0  0  0  0  0  0  0  0  0  0
   -3.8291   -4.3718    0.0000 C   0  0  0  0  0  0  0  0  0  0  0  0
   -2.8258   -5.4880    0.0000 C   0  0  0  0  0  0  0  0  0  0  0  0
   -1.3573   -5.1783    0.0000 C   0  0  0  0  0  0  0  0  0  0  0  0
   -0.8920   -3.7523    0.0000 C   0  0  0  0  0  0  0  0  0  0  0  0
   -0.3552   -6.2944    0.0000 O   0  0  0  0  0  0  0  0  0  0  0  0
   -3.2911   -6.9141    0.0000 O   0  0  0  0  0  0  0  0  0  0  0  0
   -4.7587   -7.2241    0.0000 C   0  0  0  0  0  0  0  0  0  0  0  0
   -5.2240   -8.6501    0.0000 O   0  0  0  0  0  0  0  0  0  0  0  0
    0.0000   -0.7500    0.0000 C   0  0  1  0  0  0  0  0  0  0  0  0
    1.4300   -1.2100    0.0000 C   0  0  0  0  0  0  0  0  0  0  0  0
    2.3100    0.0000    0.0000 O   0  0  0  0  0  0  0  0  0  0  0  0
  1  2  1  0  0  0  0 
  2  3  1  0  0  0  0 
  3  4  2  0  0  0  0 
  4  5  1  0  0  0  0 
  5  6  2  0  0  0  0 
  6  7  1  0  0  0  0 
  7  8  2  0  0  0  0 
  3  8  1  0  0  0  0 
  8  9  1  0  0  0  0 
  9 10  1  0  0  0  0 
 11  6  1  6  0  0  0 
 11 12  1  0  0  0  0 
 12 13  1  6  0  0  0 
 13 14  1  0  0  0  0 
 14 15  1  0  0  0  0 
 15 16  1  1  0  0  0 
 16 17  2  0  0  0  0 
 17 18  1  0  0  0  0 
 18 19  2  0  0  0  0 
 19 20  1  0  0  0  0 
 20 21  2  0  0  0  0 
 16 21  1  0  0  0  0 
 20 22  1  0  0  0  0 
 19 23  1  0  0  0  0 
 23 24  1  0  0  0  0 
 24 25  2  0  0  0  0 
 15 26  1  0  0  0  0 
 12 26  1  0  0  0  0 
 26 27  1  6  0  0  0 
 27 28  1  0  0  0  0 
 11 28  1  0  0  0  0 
M  END
> <Rank>
5

> <Priority_score>
2.3200000000000003

> <Reaction_type>
oxidative ether cleavage to one alcohol and one aldehyde/ketone

> <Parent_ID>
1

> <Parent_InChI>
InChI=1S/C21H22O6/c1-22-16-5-3-12(7-18(16)23-2)20-14-9-25-21(15(14)10-24-20)13-4-6-17-19(8-13)27-11-26-17/h3-8,14-15,20-21H,9-11H2,1-2H3/t14-,15-,20-,21+/m0/s1

> <Parent_SMILES>
C([H])([H])([H])OC1=C([H])C([H])=C(C([H])=C1OC([H])([H])[H])[C@@]2([H])[C@@]3([H])C([H])([H])O[C@]([H])(C4=C([H])C([H])=C5C(=C4[H])OC([H])([H])O5)[C@@]3([H])C([H])([H])O2

$$$$

  CDK     1104240506

 27 31  0  0  0  0  0  0  0  0999 V2000
    4.7606    7.2253    0.0000 C   0  0  0  0  0  0  0  0  0  0  0  0
    3.2930    6.9152    0.0000 O   0  0  0  0  0  0  0  0  0  0  0  0
    2.8277    5.4892    0.0000 C   0  0  0  0  0  0  0  0  0  0  0  0
    3.8299    4.3731    0.0000 C   0  0  0  0  0  0  0  0  0  0  0  0
    3.3636    2.9465    0.0000 C   0  0  0  0  0  0  0  0  0  0  0  0
    4.3658    1.8304    0.0000 O   0  0  0  0  0  0  0  0  0  0  0  0
    1.8953    2.6360    0.0000 C   0  0  0  0  0  0  0  0  0  0  0  0
    0.8931    3.7521    0.0000 C   0  0  0  0  0  0  0  0  0  0  0  0
    1.3594    5.1787    0.0000 C   0  0  0  0  0  0  0  0  0  0  0  0
    0.3572    6.2948    0.0000 O   0  0  0  0  0  0  0  0  0  0  0  0
    1.4300    1.2100    0.0000 C   0  0  1  0  0  0  0  0  0  0  0  0
    0.0000    0.7500    0.0000 C   0  0  1  0  0  0  0  0  0  0  0  0
   -1.4300    1.2100    0.0000 C   0  0  0  0  0  0  0  0  0  0  0  0
   -2.3100    0.0000    0.0000 O   0  0  0  0  0  0  0  0  0  0  0  0
   -1.4300   -1.2100    0.0000 C   0  0  2  0  0  0  0  0  0  0  0  0
   -1.8953   -2.6360    0.0000 C   0  0  0  0  0  0  0  0  0  0  0  0
   -0.8803   -3.7674    0.0000 C   0  0  0  0  0  0  0  0  0  0  0  0
   -1.3553   -5.2146    0.0000 C   0  0  0  0  0  0  0  0  0  0  0  0
   -2.8231   -5.5103    0.0000 C   0  0  0  0  0  0  0  0  0  0  0  0
   -3.8381   -4.3789    0.0000 C   0  0  0  0  0  0  0  0  0  0  0  0
   -3.3853   -2.9518    0.0000 C   0  0  0  0  0  0  0  0  0  0  0  0
   -5.1963   -5.0063    0.0000 O   0  0  0  0  0  0  0  0  0  0  0  0
   -4.9676   -6.5341    0.0000 C   0  0  0  0  0  0  0  0  0  0  0  0
   -3.5713   -6.7727    0.0000 O   0  0  0  0  0  0  0  0  0  0  0  0
    0.0000   -0.7500    0.0000 C   0  0  1  0  0  0  0  0  0  0  0  0
    1.4300   -1.2100    0.0000 C   0  0  0  0  0  0  0  0  0  0  0  0
    2.3100    0.0000    0.0000 O   0  0  0  0  0  0  0  0  0  0  0  0
  1  2  1  0  0  0  0 
  2  3  1  0  0  0  0 
  3  4  2  0  0  0  0 
  4  5  1  0  0  0  0 
  5  6  2  0  0  0  0 
  5  7  1  0  0  0  0 
  7  8  2  0  0  0  0 
  8  9  1  0  0  0  0 
  3  9  1  0  0  0  0 
  9 10  2  0  0  0  0 
 11  7  1  6  0  0  0 
 11 12  1  0  0  0  0 
 12 13  1  6  0  0  0 
 13 14  1  0  0  0  0 
 14 15  1  0  0  0  0 
 15 16  1  1  0  0  0 
 16 17  2  0  0  0  0 
 17 18  1  0  0  0  0 
 18 19  2  0  0  0  0 
 19 20  1  0  0  0  0 
 20 21  2  0  0  0  0 
 16 21  1  0  0  0  0 
 20 22  1  0  0  0  0 
 22 23  1  0  0  0  0 
 23 24  1  0  0  0  0 
 19 24  1  0  0  0  0 
 15 25  1  0  0  0  0 
 12 25  1  0  0  0  0 
 25 26  1  6  0  0  0 
 26 27  1  0  0  0  0 
 11 27  1  0  0  0  0 
M  END
> <Rank>
10

> <Priority_score>
0.544

> <Reaction_type>
oxidation of 4-substituted anisole to quinone

> <Parent_ID>
1

> <Parent_InChI>
InChI=1S/C21H22O6/c1-22-16-5-3-12(7-18(16)23-2)20-14-9-25-21(15(14)10-24-20)13-4-6-17-19(8-13)27-11-26-17/h3-8,14-15,20-21H,9-11H2,1-2H3/t14-,15-,20-,21+/m0/s1

> <Parent_SMILES>
C([H])([H])([H])OC1=C([H])C([H])=C(C([H])=C1OC([H])([H])[H])[C@@]2([H])[C@@]3([H])C([H])([H])O[C@]([H])(C4=C([H])C([H])=C5C(=C4[H])OC([H])([H])O5)[C@@]3([H])C([H])([H])O2

$$$$

  CDK     1104240506

 27 31  0  0  0  0  0  0  0  0999 V2000
    2.6260    7.7825    0.0000 C   0  0  0  0  0  0  0  0  0  0  0  0
    3.1858    6.3909    0.0000 O   0  0  0  0  0  0  0  0  0  0  0  0
    2.2606    5.2102    0.0000 C   0  0  0  0  0  0  0  0  0  0  0  0
    2.8205    3.8177    0.0000 C   0  0  0  0  0  0  0  0  0  0  0  0
    1.8953    2.6360    0.0000 C   0  0  0  0  0  0  0  0  0  0  0  0
    0.4102    2.8468    0.0000 C   0  0  0  0  0  0  0  0  0  0  0  0
   -0.1498    4.2392    0.0000 C   0  0  0  0  0  0  0  0  0  0  0  0
    0.7754    5.4210    0.0000 C   0  0  0  0  0  0  0  0  0  0  0  0
    0.2152    6.8124    0.0000 O   0  0  0  0  0  0  0  0  0  0  0  0
    1.4300    1.2100    0.0000 C   0  0  1  0  0  0  0  0  0  0  0  0
    0.0000    0.7500    0.0000 C   0  0  1  0  0  0  0  0  0  0  0  0
   -1.4300    1.2100    0.0000 C   0  0  0  0  0  0  0  0  0  0  0  0
   -2.3100    0.0000    0.0000 O   0  0  0  0  0  0  0  0  0  0  0  0
   -1.4300   -1.2100    0.0000 C   0  0  2  0  0  0  0  0  0  0  0  0
   -1.8953   -2.6360    0.0000 C   0  0  0  0  0  0  0  0  0  0  0  0
   -0.8803   -3.7674    0.0000 C   0  0  0  0  0  0  0  0  0  0  0  0
   -1.3553   -5.2146    0.0000 C   0  0  0  0  0  0  0  0  0  0  0  0
   -2.8231   -5.5103    0.0000 C   0  0  0  0  0  0  0  0  0  0  0  0
   -3.8381   -4.3789    0.0000 C   0  0  0  0  0  0  0  0  0  0  0  0
   -3.3853   -2.9518    0.0000 C   0  0  0  0  0  0  0  0  0  0  0  0
   -5.1963   -5.0063    0.0000 O   0  0  0  0  0  0  0  0  0  0  0  0
   -4.9676   -6.5341    0.0000 C   0  0  0  0  0  0  0  0  0  0  0  0
   -3.5713   -6.7727    0.0000 O   0  0  0  0  0  0  0  0  0  0  0  0
    0.0000   -0.7500    0.0000 C   0  0  1  0  0  0  0  0  0  0  0  0
    1.4300   -1.2100    0.0000 C   0  0  0  0  0  0  0  0  0  0  0  0
    2.3100    0.0000    0.0000 O   0  0  0  0  0  0  0  0  0  0  0  0
    3.2189    1.9303    0.0000 O   0  0  0  0  0  0  0  0  0  0  0  0
  1  2  1  0  0  0  0 
  2  3  1  0  0  0  0 
  3  4  2  0  0  0  0 
  4  5  1  0  0  0  0 
  5  6  1  0  0  0  0 
  6  7  2  0  0  0  0 
  7  8  1  0  0  0  0 
  3  8  1  0  0  0  0 
  8  9  2  0  0  0  0 
  5 10  1  0  0  0  0 
 10 11  1  0  0  0  0 
 11 12  1  6  0  0  0 
 12 13  1  0  0  0  0 
 13 14  1  0  0  0  0 
 14 15  1  1  0  0  0 
 15 16  2  0  0  0  0 
 16 17  1  0  0  0  0 
 17 18  2  0  0  0  0 
 18 19  1  0  0  0  0 
 19 20  2  0  0  0  0 
 15 20  1  0  0  0  0 
 19 21  1  0  0  0  0 
 21 22  1  0  0  0  0 
 22 23  1  0  0  0  0 
 18 23  1  0  0  0  0 
 14 24  1  0  0  0  0 
 11 24  1  0  0  0  0 
 24 25  1  6  0  0  0 
 25 26  1  0  0  0  0 
 10 26  1  6  0  0  0 
  5 27  1  0  0  0  0 
M  END
> <Rank>
11

> <Priority_score>
0.484

> <Reaction_type>
oxidation of 4-substituted anisole to quinone (substituent not a leaving group)

> <Parent_ID>
1

> <Parent_InChI>
InChI=1S/C21H22O6/c1-22-16-5-3-12(7-18(16)23-2)20-14-9-25-21(15(14)10-24-20)13-4-6-17-19(8-13)27-11-26-17/h3-8,14-15,20-21H,9-11H2,1-2H3/t14-,15-,20-,21+/m0/s1

> <Parent_SMILES>
C([H])([H])([H])OC1=C([H])C([H])=C(C([H])=C1OC([H])([H])[H])[C@@]2([H])[C@@]3([H])C([H])([H])O[C@]([H])(C4=C([H])C([H])=C5C(=C4[H])OC([H])([H])O5)[C@@]3([H])C([H])([H])O2

$$$$

  CDK     1104240506

 28 31  0  0  0  0  0  0  0  0999 V2000
    4.7587    7.2241    0.0000 C   0  0  0  0  0  0  0  0  0  0  0  0
    3.2911    6.9141    0.0000 O   0  0  0  0  0  0  0  0  0  0  0  0
    2.8258    5.4880    0.0000 C   0  0  0  0  0  0  0  0  0  0  0  0
    3.8291    4.3718    0.0000 C   0  0  0  0  0  0  0  0  0  0  0  0
    3.3638    2.9458    0.0000 C   0  0  0  0  0  0  0  0  0  0  0  0
    1.8953    2.6360    0.0000 C   0  0  0  0  0  0  0  0  0  0  0  0
    0.8920    3.7523    0.0000 C   0  0  0  0  0  0  0  0  0  0  0  0
    1.3573    5.1783    0.0000 C   0  0  0  0  0  0  0  0  0  0  0  0
    0.3552    6.2944    0.0000 O   0  0  0  0  0  0  0  0  0  0  0  0
    0.8207    7.7203    0.0000 C   0  0  0  0  0  0  0  0  0  0  0  0
    1.4300    1.2100    0.0000 C   0  0  1  0  0  0  0  0  0  0  0  0
    0.0000    0.7500    0.0000 C   0  0  1  0  0  0  0  0  0  0  0  0
   -1.4300    1.2100    0.0000 C   0  0  0  0  0  0  0  0  0  0  0  0
   -2.3100    0.0000    0.0000 O   0  0  0  0  0  0  0  0  0  0  0  0
   -1.4300   -1.2100    0.0000 C   0  0  1  0  0  0  0  0  0  0  0  0
    0.0000   -0.7500    0.0000 C   0  0  1  0  0  0  0  0  0  0  0  0
    1.4300   -1.2100    0.0000 C   0  0  0  0  0  0  0  0  0  0  0  0
    2.3100    0.0000    0.0000 O   0  0  0  0  0  0  0  0  0  0  0  0
   -1.8953   -2.6360    0.0000 C   0  0  0  0  0  0  0  0  0  0  0  0
   -0.4093   -2.8469    0.0000 C   0  0  0  0  0  0  0  0  0  0  0  0
    0.1519   -4.2388    0.0000 C   0  0  0  0  0  0  0  0  0  0  0  0
   -0.7728   -5.4199    0.0000 C   0  0  0  0  0  0  0  0  0  0  0  0
   -0.2125   -6.8113    0.0000 O   0  0  0  0  0  0  0  0  0  0  0  0
   -2.2587   -5.2090    0.0000 C   0  0  0  0  0  0  0  0  0  0  0  0
   -2.8200   -3.8171    0.0000 C   0  0  0  0  0  0  0  0  0  0  0  0
   -3.1834   -6.3901    0.0000 O   0  0  0  0  0  0  0  0  0  0  0  0
   -2.6229   -7.7815    0.0000 C   0  0  0  0  0  0  0  0  0  0  0  0
   -3.2189   -1.9303    0.0000 O   0  0  0  0  0  0  0  0  0  0  0  0
  1  2  1  0  0  0  0 
  2  3  1  0  0  0  0 
  3  4  2  0  0  0  0 
  4  5  1  0  0  0  0 
  5  6  2  0  0  0  0 
  6  7  1  0  0  0  0 
  7  8  2  0  0  0  0 
  3  8  1  0  0  0  0 
  8  9  1  0  0  0  0 
  9 10  1  0  0  0  0 
 11  6  1  6  0  0  0 
 11 12  1  0  0  0  0 
 12 13  1  6  0  0  0 
 13 14  1  0  0  0  0 
 15 14  1  1  0  0  0 
 15 16  1  0  0  0  0 
 12 16  1  0  0  0  0 
 16 17  1  6  0  0  0 
 17 18  1  0  0  0  0 
 11 18  1  0  0  0  0 
 15 19  1  0  0  0  0 
 19 20  1  0  0  0  0 
 20 21  2  0  0  0  0 
 21 22  1  0  0  0  0 
 22 23  2  0  0  0  0 
 22 24  1  0  0  0  0 
 24 25  2  0  0  0  0 
 19 25  1  0  0  0  0 
 24 26  1  0  0  0  0 
 26 27  1  0  0  0  0 
 19 28  1  0  0  0  0 
M  END
> <Rank>
12

> <Priority_score>
0.464

> <Reaction_type>
oxidation of 4-substituted anisole to quinone (substituent not a leaving group)

> <Parent_ID>
1

> <Parent_InChI>
InChI=1S/C21H22O6/c1-22-16-5-3-12(7-18(16)23-2)20-14-9-25-21(15(14)10-24-20)13-4-6-17-19(8-13)27-11-26-17/h3-8,14-15,20-21H,9-11H2,1-2H3/t14-,15-,20-,21+/m0/s1

> <Parent_SMILES>
C([H])([H])([H])OC1=C([H])C([H])=C(C([H])=C1OC([H])([H])[H])[C@@]2([H])[C@@]3([H])C([H])([H])O[C@]([H])(C4=C([H])C([H])=C5C(=C4[H])OC([H])([H])O5)[C@@]3([H])C([H])([H])O2

$$$$

  CDK     1104240506

 28 31  0  0  0  0  0  0  0  0999 V2000
    4.7587    7.2241    0.0000 C   0  0  0  0  0  0  0  0  0  0  0  0
    3.2911    6.9141    0.0000 O   0  0  0  0  0  0  0  0  0  0  0  0
    2.8258    5.4880    0.0000 C   0  0  0  0  0  0  0  0  0  0  0  0
    3.8291    4.3718    0.0000 C   0  0  0  0  0  0  0  0  0  0  0  0
    3.3638    2.9458    0.0000 C   0  0  0  0  0  0  0  0  0  0  0  0
    1.8953    2.6360    0.0000 C   0  0  0  0  0  0  0  0  0  0  0  0
    0.8920    3.7523    0.0000 C   0  0  0  0  0  0  0  0  0  0  0  0
    1.3573    5.1783    0.0000 C   0  0  0  0  0  0  0  0  0  0  0  0
    0.3552    6.2944    0.0000 O   0  0  0  0  0  0  0  0  0  0  0  0
    0.8207    7.7203    0.0000 C   0  0  0  0  0  0  0  0  0  0  0  0
    1.4300    1.2100    0.0000 C   0  0  1  0  0  0  0  0  0  0  0  0
    0.0000    0.7500    0.0000 C   0  0  1  0  0  0  0  0  0  0  0  0
   -1.4300    1.2100    0.0000 C   0  0  0  0  0  0  0  0  0  0  0  0
   -2.3100    0.0000    0.0000 O   0  0  0  0  0  0  0  0  0  0  0  0
   -1.4300   -1.2100    0.0000 C   0  0  2  0  0  0  0  0  0  0  0  0
   -1.8953   -2.6360    0.0000 C   0  0  0  0  0  0  0  0  0  0  0  0
   -0.8931   -3.7521    0.0000 C   0  0  0  0  0  0  0  0  0  0  0  0
   -1.3594   -5.1787    0.0000 C   0  0  0  0  0  0  0  0  0  0  0  0
   -0.3572   -6.2948    0.0000 O   0  0  0  0  0  0  0  0  0  0  0  0
   -2.8277   -5.4892    0.0000 C   0  0  0  0  0  0  0  0  0  0  0  0
   -3.8299   -4.3731    0.0000 C   0  0  0  0  0  0  0  0  0  0  0  0
   -3.3636   -2.9465    0.0000 C   0  0  0  0  0  0  0  0  0  0  0  0
   -4.3658   -1.8304    0.0000 O   0  0  0  0  0  0  0  0  0  0  0  0
   -3.2930   -6.9152    0.0000 O   0  0  0  0  0  0  0  0  0  0  0  0
   -4.7606   -7.2253    0.0000 C   0  0  0  0  0  0  0  0  0  0  0  0
    0.0000   -0.7500    0.0000 C   0  0  1  0  0  0  0  0  0  0  0  0
    1.4300   -1.2100    0.0000 C   0  0  0  0  0  0  0  0  0  0  0  0
    2.3100    0.0000    0.0000 O   0  0  0  0  0  0  0  0  0  0  0  0
  1  2  1  0  0  0  0 
  2  3  1  0  0  0  0 
  3  4  2  0  0  0  0 
  4  5  1  0  0  0  0 
  5  6  2  0  0  0  0 
  6  7  1  0  0  0  0 
  7  8  2  0  0  0  0 
  3  8  1  0  0  0  0 
  8  9  1  0  0  0  0 
  9 10  1  0  0  0  0 
 11  6  1  6  0  0  0 
 11 12  1  0  0  0  0 
 12 13  1  6  0  0  0 
 13 14  1  0  0  0  0 
 14 15  1  0  0  0  0 
 15 16  1  1  0  0  0 
 16 17  2  0  0  0  0 
 17 18  1  0  0  0  0 
 18 19  2  0  0  0  0 
 18 20  1  0  0  0  0 
 20 21  2  0  0  0  0 
 21 22  1  0  0  0  0 
 16 22  1  0  0  0  0 
 22 23  2  0  0  0  0 
 20 24  1  0  0  0  0 
 24 25  1  0  0  0  0 
 15 26  1  0  0  0  0 
 12 26  1  0  0  0  0 
 26 27  1  6  0  0  0 
 27 28  1  0  0  0  0 
 11 28  1  0  0  0  0 
M  END
> <Rank>
12

> <Priority_score>
0.464

> <Reaction_type>
oxidation of 4-substituted anisole to quinone

> <Parent_ID>
1

> <Parent_InChI>
InChI=1S/C21H22O6/c1-22-16-5-3-12(7-18(16)23-2)20-14-9-25-21(15(14)10-24-20)13-4-6-17-19(8-13)27-11-26-17/h3-8,14-15,20-21H,9-11H2,1-2H3/t14-,15-,20-,21+/m0/s1

> <Parent_SMILES>
C([H])([H])([H])OC1=C([H])C([H])=C(C([H])=C1OC([H])([H])[H])[C@@]2([H])[C@@]3([H])C([H])([H])O[C@]([H])(C4=C([H])C([H])=C5C(=C4[H])OC([H])([H])O5)[C@@]3([H])C([H])([H])O2

$$$$
