
  CDK     1104240438

 24 27  0  0  0  0  0  0  0  0999 V2000
   -3.5203    4.0170    0.0000 C   0  0  0  0  0  0  0  0  0  0  0  0
   -2.4225    2.9949    0.0000 C   0  0  0  0  0  0  0  0  0  0  0  0
   -2.7525    1.5397    0.0000 C   0  0  0  0  0  0  0  0  0  0  0  0
   -4.1873    1.0992    0.0000 C   0  0  0  0  0  0  0  0  0  0  0  0
   -5.2851    2.1213    0.0000 C   0  0  0  0  0  0  0  0  0  0  0  0
   -4.9483    3.5839    0.0000 C   0  0  0  0  0  0  0  0  0  0  0  0
   -4.5233   -0.3627    0.0000 F   0  0  0  0  0  0  0  0  0  0  0  0
   -1.6529    0.5194    0.0000 C   0  0  0  0  0  0  0  0  0  0  0  0
   -2.0951   -0.9140    0.0000 N   0  0  0  0  0  0  0  0  0  0  0  0
   -1.2501   -2.1533    0.0000 C   0  0  0  0  0  0  0  0  0  0  0  0
    0.2457   -2.2654    0.0000 C   0  0  0  0  0  0  0  0  0  0  0  0
    0.9762   -3.5755    0.0000 N   0  0  0  0  0  0  0  0  0  0  0  0
    2.4479   -3.2856    0.0000 N   0  0  0  0  0  0  0  0  0  0  0  0
    2.6270   -1.7964    0.0000 C   0  0  0  0  0  0  0  0  0  0  0  0
    3.9371   -1.0659    0.0000 C   0  0  0  0  0  0  0  0  0  0  0  0
    5.2248   -1.8352    0.0000 O   0  0  0  0  0  0  0  0  0  0  0  0
    1.2660   -1.1658    0.0000 N   0  0  0  0  0  0  0  0  0  0  0  0
    1.0424    0.3174    0.0000 C   0  0  0  0  0  0  0  0  0  0  0  0
   -0.2566    1.0674    0.0000 C   0  0  0  0  0  0  0  0  0  0  0  0
   -0.2566    2.5674    0.0000 C   0  0  0  0  0  0  0  0  0  0  0  0
    1.0424    3.3174    0.0000 C   0  0  0  0  0  0  0  0  0  0  0  0
    2.3414    2.5674    0.0000 C   0  0  0  0  0  0  0  0  0  0  0  0
    2.3414    1.0674    0.0000 C   0  0  0  0  0  0  0  0  0  0  0  0
    1.0424    4.8174    0.0000 Cl  0  0  0  0  0  0  0  0  0  0  0  0
  1  2  2  0  0  0  0 
  2  3  1  0  0  0  0 
  3  4  2  0  0  0  0 
  4  5  1  0  0  0  0 
  5  6  2  0  0  0  0 
  1  6  1  0  0  0  0 
  4  7  1  0  0  0  0 
  3  8  1  0  0  0  0 
  8  9  2  0  0  0  0 
  9 10  1  0  0  0  0 
 10 11  1  0  0  0  0 
 11 12  2  0  0  0  0 
 12 13  1  0  0  0  0 
 13 14  2  0  0  0  0 
 14 15  1  0  0  0  0 
 15 16  1  0  0  0  0 
 14 17  1  0  0  0  0 
 11 17  1  0  0  0  0 
 17 18  1  0  0  0  0 
 18 19  2  0  0  0  0 
  8 19  1  0  0  0  0 
 19 20  1  0  0  0  0 
 20 21  2  0  0  0  0 
 21 22  1  0  0  0  0 
 22 23  2  0  0  0  0 
 18 23  1  0  0  0  0 
 21 24  1  0  0  0  0 
M  END
> <Rank>
1

> <Priority_score>
1.9500000000000002

> <Reaction_type>
aliphatic hydroxylation

> <Parent_ID>
1

> <Parent_InChI>
InChI=1S/C17H12ClFN4/c1-10-21-22-16-9-20-17(12-4-2-3-5-14(12)19)13-8-11(18)6-7-15(13)23(10)16/h2-8H,9H2,1H3

> <Parent_SMILES>
C([H])([H])([H])C1=NN=C2C([H])([H])N=C(C3=C(C([H])=C([H])C([H])=C3[H])F)C4=C(C([H])=C([H])C(=C4[H])Cl)N12

$$$$

  CDK     1104240438

 24 27  0  0  0  0  0  0  0  0999 V2000
   -5.6459    2.3838    0.0000 C   0  0  0  0  0  0  0  0  0  0  0  0
   -5.4002    0.9041    0.0000 C   0  0  0  0  0  0  0  0  0  0  0  0
   -6.4529   -0.1645    0.0000 N   0  0  0  0  0  0  0  0  0  0  0  0
   -5.7619   -1.4959    0.0000 N   0  0  0  0  0  0  0  0  0  0  0  0
   -4.2822   -1.2502    0.0000 C   0  0  0  0  0  0  0  0  0  0  0  0
   -3.2619   -2.3497    0.0000 C   0  0  0  0  0  0  0  0  0  0  0  0
   -1.7661   -2.2376    0.0000 N   0  0  0  0  0  0  0  0  0  0  0  0
   -0.9211   -0.9983    0.0000 C   0  0  0  0  0  0  0  0  0  0  0  0
    0.5621   -1.2218    0.0000 C   0  0  0  0  0  0  0  0  0  0  0  0
    1.4994   -0.0497    0.0000 C   0  0  0  0  0  0  0  0  0  0  0  0
    2.9823   -0.2758    0.0000 C   0  0  0  0  0  0  0  0  0  0  0  0
    3.5278   -1.6739    0.0000 C   0  0  0  0  0  0  0  0  0  0  0  0
    2.5920   -2.8362    0.0000 C   0  0  0  0  0  0  0  0  0  0  0  0
    1.1091   -2.6101    0.0000 C   0  0  0  0  0  0  0  0  0  0  0  0
    0.9536    1.3474    0.0000 F   0  0  0  0  0  0  0  0  0  0  0  0
   -1.3633    0.4351    0.0000 C   0  0  0  0  0  0  0  0  0  0  0  0
   -2.7596    0.9831    0.0000 C   0  0  0  0  0  0  0  0  0  0  0  0
   -2.9831    2.4663    0.0000 C   0  0  0  0  0  0  0  0  0  0  0  0
   -1.8104    3.4016    0.0000 C   0  0  0  0  0  0  0  0  0  0  0  0
   -0.4141    2.8536    0.0000 C   0  0  0  0  0  0  0  0  0  0  0  0
   -0.1905    1.3703    0.0000 C   0  0  0  0  0  0  0  0  0  0  0  0
    0.7587    3.7888    0.0000 Cl  0  0  0  0  0  0  0  0  0  0  0  0
   -4.0586    0.2331    0.0000 N   0  0  0  0  0  0  0  0  0  0  0  0
   -3.8099   -3.7460    0.0000 O   0  0  0  0  0  0  0  0  0  0  0  0
  1  2  1  0  0  0  0 
  2  3  2  0  0  0  0 
  3  4  1  0  0  0  0 
  4  5  2  0  0  0  0 
  5  6  1  0  0  0  0 
  6  7  1  0  0  0  0 
  7  8  2  0  0  0  0 
  8  9  1  0  0  0  0 
  9 10  2  0  0  0  0 
 10 11  1  0  0  0  0 
 11 12  2  0  0  0  0 
 12 13  1  0  0  0  0 
 13 14  2  0  0  0  0 
  9 14  1  0  0  0  0 
 10 15  1  0  0  0  0 
  8 16  1  0  0  0  0 
 16 17  2  0  0  0  0 
 17 18  1  0  0  0  0 
 18 19  2  0  0  0  0 
 19 20  1  0  0  0  0 
 20 21  2  0  0  0  0 
 16 21  1  0  0  0  0 
 20 22  1  0  0  0  0 
 17 23  1  0  0  0  0 
  2 23  1  0  0  0  0 
  5 23  1  0  0  0  0 
  6 24  1  0  0  0  0 
M  END
> <Rank>
2

> <Priority_score>
1.8199999999999998

> <Reaction_type>
aliphatic hydroxylation

> <Parent_ID>
1

> <Parent_InChI>
InChI=1S/C17H12ClFN4/c1-10-21-22-16-9-20-17(12-4-2-3-5-14(12)19)13-8-11(18)6-7-15(13)23(10)16/h2-8H,9H2,1H3

> <Parent_SMILES>
C([H])([H])([H])C1=NN=C2C([H])([H])N=C(C3=C(C([H])=C([H])C([H])=C3[H])F)C4=C(C([H])=C([H])C(=C4[H])Cl)N12

$$$$

  CDK     1104240438

 24 27  0  0  0  0  0  0  0  0999 V2000
   -5.9834   -2.4094    0.0000 C   0  0  0  0  0  0  0  0  0  0  0  0
   -4.5790   -2.9365    0.0000 C   0  0  0  0  0  0  0  0  0  0  0  0
   -4.1800   -4.3824    0.0000 N   0  0  0  0  0  0  0  0  0  0  0  0
   -2.6815   -4.4497    0.0000 N   0  0  0  0  0  0  0  0  0  0  0  0
   -2.1544   -3.0454    0.0000 C   0  0  0  0  0  0  0  0  0  0  0  0
   -0.6920   -2.7116    0.0000 C   0  0  0  0  0  0  0  0  0  0  0  0
   -0.0412   -1.3602    0.0000 N   0  0  0  0  0  0  0  0  0  0  0  0
   -0.6920   -0.0087    0.0000 C   0  0  0  0  0  0  0  0  0  0  0  0
    0.2432    1.1640    0.0000 C   0  0  0  0  0  0  0  0  0  0  0  0
   -0.3032    2.5619    0.0000 C   0  0  0  0  0  0  0  0  0  0  0  0
    0.6340    3.7331    0.0000 C   0  0  0  0  0  0  0  0  0  0  0  0
    2.1176    3.5064    0.0000 C   0  0  0  0  0  0  0  0  0  0  0  0
    2.6562    2.1148    0.0000 C   0  0  0  0  0  0  0  0  0  0  0  0
    1.7190    0.9436    0.0000 C   0  0  0  0  0  0  0  0  0  0  0  0
   -1.7861    2.7877    0.0000 F   0  0  0  0  0  0  0  0  0  0  0  0
   -2.1544    0.3251    0.0000 C   0  0  0  0  0  0  0  0  0  0  0  0
   -3.3272   -0.6102    0.0000 C   0  0  0  0  0  0  0  0  0  0  0  0
   -4.7235   -0.0621    0.0000 C   0  0  0  0  0  0  0  0  0  0  0  0
   -4.9470    1.4211    0.0000 C   0  0  0  0  0  0  0  0  0  0  0  0
   -3.7743    2.3563    0.0000 C   0  0  0  0  0  0  0  0  0  0  0  0
   -2.3780    1.8083    0.0000 C   0  0  0  0  0  0  0  0  0  0  0  0
   -3.9979    3.8396    0.0000 Cl  0  0  0  0  0  0  0  0  0  0  0  0
   -3.3272   -2.1102    0.0000 N   0  0  0  0  0  0  0  0  0  0  0  0
    1.4588   -1.3602    0.0000 O   0  0  0  0  0  0  0  0  0  0  0  0
  1  2  1  0  0  0  0 
  2  3  2  0  0  0  0 
  3  4  1  0  0  0  0 
  4  5  2  0  0  0  0 
  5  6  1  0  0  0  0 
  6  7  1  0  0  0  0 
  7  8  2  0  0  0  0 
  8  9  1  0  0  0  0 
  9 10  2  0  0  0  0 
 10 11  1  0  0  0  0 
 11 12  2  0  0  0  0 
 12 13  1  0  0  0  0 
 13 14  2  0  0  0  0 
  9 14  1  0  0  0  0 
 10 15  1  0  0  0  0 
  8 16  1  0  0  0  0 
 16 17  2  0  0  0  0 
 17 18  1  0  0  0  0 
 18 19  2  0  0  0  0 
 19 20  1  0  0  0  0 
 20 21  2  0  0  0  0 
 16 21  1  0  0  0  0 
 20 22  1  0  0  0  0 
 17 23  1  0  0  0  0 
  2 23  1  0  0  0  0 
  5 23  1  0  0  0  0 
  7 24  1  0  0  0  0 
M  CHG  1   7   1
M  CHG  1  24  -1
M  END
> <Rank>
2

> <Priority_score>
1.8199999999999998

> <Reaction_type>
N-oxidation

> <Parent_ID>
1

> <Parent_InChI>
InChI=1S/C17H12ClFN4/c1-10-21-22-16-9-20-17(12-4-2-3-5-14(12)19)13-8-11(18)6-7-15(13)23(10)16/h2-8H,9H2,1H3

> <Parent_SMILES>
C([H])([H])([H])C1=NN=C2C([H])([H])N=C(C3=C(C([H])=C([H])C([H])=C3[H])F)C4=C(C([H])=C([H])C(=C4[H])Cl)N12

$$$$

  CDK     1104240438

 24 26  0  0  0  0  0  0  0  0999 V2000
   -7.6630   -3.8915    0.0000 C   0  0  0  0  0  0  0  0  0  0  0  0
   -6.2924   -4.5010    0.0000 C   0  0  0  0  0  0  0  0  0  0  0  0
   -5.9807   -5.9607    0.0000 N   0  0  0  0  0  0  0  0  0  0  0  0
   -4.4879   -6.1265    0.0000 N   0  0  0  0  0  0  0  0  0  0  0  0
   -3.8850   -4.7507    0.0000 C   0  0  0  0  0  0  0  0  0  0  0  0
   -2.4185   -4.4352    0.0000 C   0  0  0  0  0  0  0  0  0  0  0  0
   -1.4121   -5.5474    0.0000 O   0  0  0  0  0  0  0  0  0  0  0  0
   -4.9933   -3.7510    0.0000 N   0  0  0  0  0  0  0  0  0  0  0  0
   -4.7855   -1.7819    0.0000 C   0  0  0  0  0  0  0  0  0  0  0  0
   -5.9992   -0.8990    0.0000 C   0  0  0  0  0  0  0  0  0  0  0  0
   -5.8424    0.5936    0.0000 C   0  0  0  0  0  0  0  0  0  0  0  0
   -4.4719    1.2033    0.0000 C   0  0  0  0  0  0  0  0  0  0  0  0
   -3.2582    0.3204    0.0000 C   0  0  0  0  0  0  0  0  0  0  0  0
   -3.4150   -1.1722    0.0000 C   0  0  0  0  0  0  0  0  0  0  0  0
   -2.2016   -2.0540    0.0000 C   0  0  0  0  0  0  0  0  0  0  0  0
   -2.3586   -3.5458    0.0000 N   0  0  0  0  0  0  0  0  0  0  0  0
   -0.8312   -1.4441    0.0000 C   0  0  0  0  0  0  0  0  0  0  0  0
   -0.6721    0.0483    0.0000 C   0  0  0  0  0  0  0  0  0  0  0  0
    0.6993    0.6559    0.0000 C   0  0  0  0  0  0  0  0  0  0  0  0
    1.9116   -0.2288    0.0000 C   0  0  0  0  0  0  0  0  0  0  0  0
    1.7485   -1.7120    0.0000 C   0  0  0  0  0  0  0  0  0  0  0  0
    0.3771   -2.3197    0.0000 C   0  0  0  0  0  0  0  0  0  0  0  0
   -1.8842    0.9320    0.0000 F   0  0  0  0  0  0  0  0  0  0  0  0
   -4.3144    2.6950    0.0000 Cl  0  0  0  0  0  0  0  0  0  0  0  0
  1  2  1  0  0  0  0 
  2  3  2  0  0  0  0 
  3  4  1  0  0  0  0 
  4  5  2  0  0  0  0 
  5  6  1  0  0  0  0 
  6  7  2  0  0  0  0 
  5  8  1  0  0  0  0 
  2  8  1  0  0  0  0 
  8  9  1  0  0  0  0 
  9 10  2  0  0  0  0 
 10 11  1  0  0  0  0 
 11 12  2  0  0  0  0 
 12 13  1  0  0  0  0 
 13 14  2  0  0  0  0 
  9 14  1  0  0  0  0 
 14 15  1  0  0  0  0 
 15 16  2  0  0  0  0 
 15 17  1  0  0  0  0 
 17 18  2  0  0  0  0 
 18 19  1  0  0  0  0 
 19 20  2  0  0  0  0 
 20 21  1  0  0  0  0 
 21 22  2  0  0  0  0 
 17 22  1  0  0  0  0 
 18 23  1  0  0  0  0 
 12 24  1  0  0  0  0 
M  END
> <Rank>
2

> <Priority_score>
1.8199999999999998

> <Reaction_type>
N-dealkylation

> <Parent_ID>
1

> <Parent_InChI>
InChI=1S/C17H12ClFN4/c1-10-21-22-16-9-20-17(12-4-2-3-5-14(12)19)13-8-11(18)6-7-15(13)23(10)16/h2-8H,9H2,1H3

> <Parent_SMILES>
C([H])([H])([H])C1=NN=C2C([H])([H])N=C(C3=C(C([H])=C([H])C([H])=C3[H])F)C4=C(C([H])=C([H])C(=C4[H])Cl)N12

$$$$
