
  CDK     1104240422

 29 31  0  0  0  0  0  0  0  0999 V2000
    6.8251   -4.3344    0.0000 C   0  0  0  0  0  0  0  0  0  0  0  0
    5.5518   -3.5901    0.0000 C   0  0  0  0  0  0  0  0  0  0  0  0
    5.5452   -2.0901    0.0000 C   0  0  0  0  0  0  0  0  0  0  0  0
    6.8118   -1.3345    0.0000 C   0  0  0  0  0  0  0  0  0  0  0  0
    8.1651   -2.0785    0.0000 C   0  0  0  0  0  0  0  0  0  0  0  0
    8.1718   -3.5784    0.0000 C   0  0  0  0  0  0  0  0  0  0  0  0
    9.4545   -1.3120    0.0000 O   0  0  0  0  0  0  0  0  0  0  0  0
   10.7630   -2.0455    0.0000 C   0  0  0  0  0  0  0  0  0  0  0  0
   12.0524   -1.2791    0.0000 C   0  0  0  0  0  0  0  0  0  0  0  0
   13.3609   -2.0125    0.0000 O   0  0  0  0  0  0  0  0  0  0  0  0
    4.2524   -4.3395    0.0000 C   0  0  0  0  0  0  0  0  0  0  0  0
    2.9537   -3.5888    0.0000 C   0  0  0  0  0  0  0  0  0  0  0  0
    1.6535   -4.3384    0.0000 C   0  0  0  0  0  0  0  0  0  0  0  0
    0.3537   -3.5880    0.0000 C   0  0  0  0  0  0  0  0  0  0  0  0
    0.3542   -2.0880    0.0000 C   0  0  0  0  0  0  0  0  0  0  0  0
    1.6545   -1.3384    0.0000 C   0  0  0  0  0  0  0  0  0  0  0  0
    2.9542   -2.0888    0.0000 C   0  0  0  0  0  0  0  0  0  0  0  0
    4.2534   -1.3390    0.0000 Cl  0  0  0  0  0  0  0  0  0  0  0  0
   -0.9454   -4.3378    0.0000 C   0  0  1  0  0  0  0  0  0  0  0  0
   -2.2445   -3.5878    0.0000 C   0  0  1  0  0  0  0  0  0  0  0  0
   -3.5440   -4.3386    0.0000 C   0  0  2  0  0  0  0  0  0  0  0  0
   -3.5445   -5.8395    0.0000 C   0  0  1  0  0  0  0  0  0  0  0  0
   -2.2454   -6.5895    0.0000 C   0  0  1  0  0  0  0  0  0  0  0  0
   -2.2452   -8.0895    0.0000 C   0  0  0  0  0  0  0  0  0  0  0  0
   -3.5441   -8.8397    0.0000 O   0  0  0  0  0  0  0  0  0  0  0  0
   -0.9459   -5.8386    0.0000 O   0  0  0  0  0  0  0  0  0  0  0  0
   -4.8436   -6.5892    0.0000 O   0  0  0  0  0  0  0  0  0  0  0  0
   -4.8430   -3.5886    0.0000 O   0  0  0  0  0  0  0  0  0  0  0  0
   -2.2447   -2.0878    0.0000 O   0  0  0  0  0  0  0  0  0  0  0  0
  1  2  2  0  0  0  0 
  2  3  1  0  0  0  0 
  3  4  2  0  0  0  0 
  4  5  1  0  0  0  0 
  5  6  2  0  0  0  0 
  1  6  1  0  0  0  0 
  5  7  1  0  0  0  0 
  7  8  1  0  0  0  0 
  8  9  1  0  0  0  0 
  9 10  2  0  0  0  0 
  2 11  1  0  0  0  0 
 11 12  1  0  0  0  0 
 12 13  2  0  0  0  0 
 13 14  1  0  0  0  0 
 14 15  2  0  0  0  0 
 15 16  1  0  0  0  0 
 16 17  2  0  0  0  0 
 12 17  1  0  0  0  0 
 17 18  1  0  0  0  0 
 19 14  1  6  0  0  0 
 19 20  1  0  0  0  0 
 20 21  1  0  0  0  0 
 21 22  1  0  0  0  0 
 22 23  1  0  0  0  0 
 23 24  1  6  0  0  0 
 24 25  1  0  0  0  0 
 23 26  1  0  0  0  0 
 19 26  1  0  0  0  0 
 22 27  1  1  0  0  0 
 21 28  1  6  0  0  0 
 20 29  1  1  0  0  0 
M  END
> <Rank>
1

> <Priority_score>
2.0100000000000002

> <Reaction_type>
oxidative ether cleavage to one alcohol and one aldehyde/ketone

> <Parent_ID>
1

> <Parent_InChI>
InChI=1S/C24H29ClO7/c25-19-8-3-15(24-23(29)22(28)21(27)20(13-26)32-24)12-16(19)11-14-1-4-17(5-2-14)30-9-10-31-18-6-7-18/h1-5,8,12,18,20-24,26-29H,6-7,9-11,13H2/t20-,21-,22+,23-,24+/m1/s1

> <Parent_SMILES>
C1([H])=C(C([H])=C([H])C(=C1[H])OC([H])([H])C([H])([H])OC2([H])C([H])([H])C2([H])[H])C([H])([H])C3=C([H])C(=C([H])C([H])=C3Cl)[C@@]4([H])[C@@]([H])([C@]([H])([C@@]([H])([C@@]([H])(C([H])([H])O[H])O4)O[H])O[H])O[H]

$$$$

  CDK     1104240422

  4  4  0  0  0  0  0  0  0  0999 V2000
    0.1878   -1.5045    0.0000 C   0  0  0  0  0  0  0  0  0  0  0  0
   -0.5630   -0.2050    0.0000 C   0  0  0  0  0  0  0  0  0  0  0  0
    0.9378   -0.2055    0.0000 C   0  0  0  0  0  0  0  0  0  0  0  0
    2.2370    0.5443    0.0000 O   0  0  0  0  0  0  0  0  0  0  0  0
  1  2  1  0  0  0  0 
  2  3  1  0  0  0  0 
  1  3  1  0  0  0  0 
  3  4  2  0  0  0  0 
M  END
> <Rank>
1

> <Priority_score>
2.0100000000000002

> <Reaction_type>
oxidative ether cleavage to one alcohol and one aldehyde/ketone

> <Parent_ID>
1

> <Parent_InChI>
InChI=1S/C24H29ClO7/c25-19-8-3-15(24-23(29)22(28)21(27)20(13-26)32-24)12-16(19)11-14-1-4-17(5-2-14)30-9-10-31-18-6-7-18/h1-5,8,12,18,20-24,26-29H,6-7,9-11,13H2/t20-,21-,22+,23-,24+/m1/s1

> <Parent_SMILES>
C1([H])=C(C([H])=C([H])C(=C1[H])OC([H])([H])C([H])([H])OC2([H])C([H])([H])C2([H])[H])C([H])([H])C3=C([H])C(=C([H])C([H])=C3Cl)[C@@]4([H])[C@@]([H])([C@]([H])([C@@]([H])([C@@]([H])(C([H])([H])O[H])O4)O[H])O[H])O[H]

$$$$

  CDK     1104240422

  4  4  0  0  0  0  0  0  0  0999 V2000
    0.1878   -1.5045    0.0000 C   0  0  0  0  0  0  0  0  0  0  0  0
   -0.5630   -0.2050    0.0000 C   0  0  0  0  0  0  0  0  0  0  0  0
    0.9378   -0.2055    0.0000 C   0  0  0  0  0  0  0  0  0  0  0  0
    2.2370    0.5443    0.0000 O   0  0  0  0  0  0  0  0  0  0  0  0
  1  2  1  0  0  0  0 
  2  3  1  0  0  0  0 
  1  3  1  0  0  0  0 
  3  4  1  0  0  0  0 
M  END
> <Rank>
1

> <Priority_score>
2.0100000000000002

> <Reaction_type>
oxidative ether cleavage to one alcohol and one aldehyde/ketone

> <Parent_ID>
1

> <Parent_InChI>
InChI=1S/C24H29ClO7/c25-19-8-3-15(24-23(29)22(28)21(27)20(13-26)32-24)12-16(19)11-14-1-4-17(5-2-14)30-9-10-31-18-6-7-18/h1-5,8,12,18,20-24,26-29H,6-7,9-11,13H2/t20-,21-,22+,23-,24+/m1/s1

> <Parent_SMILES>
C1([H])=C(C([H])=C([H])C(=C1[H])OC([H])([H])C([H])([H])OC2([H])C([H])([H])C2([H])[H])C([H])([H])C3=C([H])C(=C([H])C([H])=C3Cl)[C@@]4([H])[C@@]([H])([C@]([H])([C@@]([H])([C@@]([H])(C([H])([H])O[H])O4)O[H])O[H])O[H]

$$$$

  CDK     1104240422

 29 31  0  0  0  0  0  0  0  0999 V2000
    6.8251   -4.3344    0.0000 C   0  0  0  0  0  0  0  0  0  0  0  0
    5.5518   -3.5901    0.0000 C   0  0  0  0  0  0  0  0  0  0  0  0
    5.5452   -2.0901    0.0000 C   0  0  0  0  0  0  0  0  0  0  0  0
    6.8118   -1.3345    0.0000 C   0  0  0  0  0  0  0  0  0  0  0  0
    8.1651   -2.0785    0.0000 C   0  0  0  0  0  0  0  0  0  0  0  0
    8.1718   -3.5784    0.0000 C   0  0  0  0  0  0  0  0  0  0  0  0
    9.4545   -1.3120    0.0000 O   0  0  0  0  0  0  0  0  0  0  0  0
   10.7630   -2.0455    0.0000 C   0  0  0  0  0  0  0  0  0  0  0  0
   12.0524   -1.2791    0.0000 C   0  0  0  0  0  0  0  0  0  0  0  0
   13.3609   -2.0125    0.0000 O   0  0  0  0  0  0  0  0  0  0  0  0
    4.2524   -4.3395    0.0000 C   0  0  0  0  0  0  0  0  0  0  0  0
    2.9537   -3.5888    0.0000 C   0  0  0  0  0  0  0  0  0  0  0  0
    1.6535   -4.3384    0.0000 C   0  0  0  0  0  0  0  0  0  0  0  0
    0.3537   -3.5880    0.0000 C   0  0  0  0  0  0  0  0  0  0  0  0
    0.3542   -2.0880    0.0000 C   0  0  0  0  0  0  0  0  0  0  0  0
    1.6545   -1.3384    0.0000 C   0  0  0  0  0  0  0  0  0  0  0  0
    2.9542   -2.0888    0.0000 C   0  0  0  0  0  0  0  0  0  0  0  0
    4.2534   -1.3390    0.0000 Cl  0  0  0  0  0  0  0  0  0  0  0  0
   -0.9454   -4.3378    0.0000 C   0  0  1  0  0  0  0  0  0  0  0  0
   -2.2445   -3.5878    0.0000 C   0  0  1  0  0  0  0  0  0  0  0  0
   -3.5440   -4.3386    0.0000 C   0  0  2  0  0  0  0  0  0  0  0  0
   -3.5445   -5.8395    0.0000 C   0  0  1  0  0  0  0  0  0  0  0  0
   -2.2454   -6.5895    0.0000 C   0  0  1  0  0  0  0  0  0  0  0  0
   -2.2452   -8.0895    0.0000 C   0  0  0  0  0  0  0  0  0  0  0  0
   -3.5441   -8.8397    0.0000 O   0  0  0  0  0  0  0  0  0  0  0  0
   -0.9459   -5.8386    0.0000 O   0  0  0  0  0  0  0  0  0  0  0  0
   -4.8436   -6.5892    0.0000 O   0  0  0  0  0  0  0  0  0  0  0  0
   -4.8430   -3.5886    0.0000 O   0  0  0  0  0  0  0  0  0  0  0  0
   -2.2447   -2.0878    0.0000 O   0  0  0  0  0  0  0  0  0  0  0  0
  1  2  2  0  0  0  0 
  2  3  1  0  0  0  0 
  3  4  2  0  0  0  0 
  4  5  1  0  0  0  0 
  5  6  2  0  0  0  0 
  1  6  1  0  0  0  0 
  5  7  1  0  0  0  0 
  7  8  1  0  0  0  0 
  8  9  1  0  0  0  0 
  9 10  1  0  0  0  0 
  2 11  1  0  0  0  0 
 11 12  1  0  0  0  0 
 12 13  2  0  0  0  0 
 13 14  1  0  0  0  0 
 14 15  2  0  0  0  0 
 15 16  1  0  0  0  0 
 16 17  2  0  0  0  0 
 12 17  1  0  0  0  0 
 17 18  1  0  0  0  0 
 19 14  1  6  0  0  0 
 19 20  1  0  0  0  0 
 20 21  1  0  0  0  0 
 21 22  1  0  0  0  0 
 22 23  1  0  0  0  0 
 23 24  1  6  0  0  0 
 24 25  1  0  0  0  0 
 23 26  1  0  0  0  0 
 19 26  1  0  0  0  0 
 22 27  1  1  0  0  0 
 21 28  1  6  0  0  0 
 20 29  1  1  0  0  0 
M  END
> <Rank>
1

> <Priority_score>
2.0100000000000002

> <Reaction_type>
oxidative ether cleavage to one alcohol and one aldehyde/ketone

> <Parent_ID>
1

> <Parent_InChI>
InChI=1S/C24H29ClO7/c25-19-8-3-15(24-23(29)22(28)21(27)20(13-26)32-24)12-16(19)11-14-1-4-17(5-2-14)30-9-10-31-18-6-7-18/h1-5,8,12,18,20-24,26-29H,6-7,9-11,13H2/t20-,21-,22+,23-,24+/m1/s1

> <Parent_SMILES>
C1([H])=C(C([H])=C([H])C(=C1[H])OC([H])([H])C([H])([H])OC2([H])C([H])([H])C2([H])[H])C([H])([H])C3=C([H])C(=C([H])C([H])=C3Cl)[C@@]4([H])[C@@]([H])([C@]([H])([C@@]([H])([C@@]([H])(C([H])([H])O[H])O4)O[H])O[H])O[H]

$$$$

  CDK     1104240422

 33 36  0  0  0  0  0  0  0  0999 V2000
    2.7660   -5.0470    0.0000 C   0  0  0  0  0  0  0  0  0  0  0  0
    4.0393   -5.7913    0.0000 C   0  0  0  0  0  0  0  0  0  0  0  0
    4.0459   -7.2913    0.0000 C   0  0  0  0  0  0  0  0  0  0  0  0
    2.7793   -8.0469    0.0000 C   0  0  0  0  0  0  0  0  0  0  0  0
    1.4260   -7.3029    0.0000 C   0  0  0  0  0  0  0  0  0  0  0  0
    1.4193   -5.8029    0.0000 C   0  0  0  0  0  0  0  0  0  0  0  0
    0.1366   -8.0694    0.0000 O   0  0  0  0  0  0  0  0  0  0  0  0
   -1.1719   -7.3359    0.0000 C   0  0  0  0  0  0  0  0  0  0  0  0
   -2.4613   -8.1023    0.0000 C   0  0  0  0  0  0  0  0  0  0  0  0
   -3.7698   -7.3689    0.0000 O   0  0  0  0  0  0  0  0  0  0  0  0
   -5.0592   -8.1353    0.0000 C   0  0  0  0  0  0  0  0  0  0  0  0
   -4.5279   -9.5389    0.0000 C   0  0  0  0  0  0  0  0  0  0  0  0
   -6.0089   -9.2963    0.0000 C   0  0  0  0  0  0  0  0  0  0  0  0
   -6.0377   -6.9985    0.0000 O   0  0  0  0  0  0  0  0  0  0  0  0
    5.3387   -5.0419    0.0000 C   0  0  0  0  0  0  0  0  0  0  0  0
    6.6374   -5.7926    0.0000 C   0  0  0  0  0  0  0  0  0  0  0  0
    7.9376   -5.0430    0.0000 C   0  0  0  0  0  0  0  0  0  0  0  0
    9.2374   -5.7934    0.0000 C   0  0  0  0  0  0  0  0  0  0  0  0
    9.2369   -7.2934    0.0000 C   0  0  0  0  0  0  0  0  0  0  0  0
    7.9366   -8.0430    0.0000 C   0  0  0  0  0  0  0  0  0  0  0  0
    6.6369   -7.2926    0.0000 C   0  0  0  0  0  0  0  0  0  0  0  0
    5.3377   -8.0423    0.0000 Cl  0  0  0  0  0  0  0  0  0  0  0  0
   10.5365   -5.0436    0.0000 C   0  0  1  0  0  0  0  0  0  0  0  0
   11.8356   -5.7936    0.0000 C   0  0  1  0  0  0  0  0  0  0  0  0
   13.1351   -5.0428    0.0000 C   0  0  2  0  0  0  0  0  0  0  0  0
   13.1356   -3.5419    0.0000 C   0  0  1  0  0  0  0  0  0  0  0  0
   11.8365   -2.7919    0.0000 C   0  0  1  0  0  0  0  0  0  0  0  0
   11.8363   -1.2919    0.0000 C   0  0  0  0  0  0  0  0  0  0  0  0
   13.1352   -0.5417    0.0000 O   0  0  0  0  0  0  0  0  0  0  0  0
   10.5370   -3.5428    0.0000 O   0  0  0  0  0  0  0  0  0  0  0  0
   14.4347   -2.7921    0.0000 O   0  0  0  0  0  0  0  0  0  0  0  0
   14.4341   -5.7928    0.0000 O   0  0  0  0  0  0  0  0  0  0  0  0
   11.8358   -7.2936    0.0000 O   0  0  0  0  0  0  0  0  0  0  0  0
  1  2  2  0  0  0  0 
  2  3  1  0  0  0  0 
  3  4  2  0  0  0  0 
  4  5  1  0  0  0  0 
  5  6  2  0  0  0  0 
  1  6  1  0  0  0  0 
  5  7  1  0  0  0  0 
  7  8  1  0  0  0  0 
  8  9  1  0  0  0  0 
  9 10  1  0  0  0  0 
 10 11  1  0  0  0  0 
 11 12  1  0  0  0  0 
 12 13  1  0  0  0  0 
 11 13  1  0  0  0  0 
 11 14  1  0  0  0  0 
  2 15  1  0  0  0  0 
 15 16  1  0  0  0  0 
 16 17  2  0  0  0  0 
 17 18  1  0  0  0  0 
 18 19  2  0  0  0  0 
 19 20  1  0  0  0  0 
 20 21  2  0  0  0  0 
 16 21  1  0  0  0  0 
 21 22  1  0  0  0  0 
 23 18  1  6  0  0  0 
 23 24  1  0  0  0  0 
 24 25  1  0  0  0  0 
 25 26  1  0  0  0  0 
 26 27  1  0  0  0  0 
 27 28  1  6  0  0  0 
 28 29  1  0  0  0  0 
 27 30  1  0  0  0  0 
 23 30  1  0  0  0  0 
 26 31  1  1  0  0  0 
 25 32  1  6  0  0  0 
 24 33  1  1  0  0  0 
M  END
> <Rank>
1

> <Priority_score>
2.0100000000000002

> <Reaction_type>
aliphatic hydroxylation

> <Parent_ID>
1

> <Parent_InChI>
InChI=1S/C24H29ClO7/c25-19-8-3-15(24-23(29)22(28)21(27)20(13-26)32-24)12-16(19)11-14-1-4-17(5-2-14)30-9-10-31-18-6-7-18/h1-5,8,12,18,20-24,26-29H,6-7,9-11,13H2/t20-,21-,22+,23-,24+/m1/s1

> <Parent_SMILES>
C1([H])=C(C([H])=C([H])C(=C1[H])OC([H])([H])C([H])([H])OC2([H])C([H])([H])C2([H])[H])C([H])([H])C3=C([H])C(=C([H])C([H])=C3Cl)[C@@]4([H])[C@@]([H])([C@]([H])([C@@]([H])([C@@]([H])(C([H])([H])O[H])O4)O[H])O[H])O[H]

$$$$

  CDK     1104240422

 33 36  0  0  0  0  0  0  0  0999 V2000
    3.3760   -6.0683    0.0000 C   0  0  0  0  0  0  0  0  0  0  0  0
    4.6493   -6.8126    0.0000 C   0  0  0  0  0  0  0  0  0  0  0  0
    4.6560   -8.3126    0.0000 C   0  0  0  0  0  0  0  0  0  0  0  0
    3.3893   -9.0683    0.0000 C   0  0  0  0  0  0  0  0  0  0  0  0
    2.0360   -8.3243    0.0000 C   0  0  0  0  0  0  0  0  0  0  0  0
    2.0293   -6.8243    0.0000 C   0  0  0  0  0  0  0  0  0  0  0  0
    0.7466   -9.0907    0.0000 O   0  0  0  0  0  0  0  0  0  0  0  0
   -0.5619   -8.3572    0.0000 C   0  0  0  0  0  0  0  0  0  0  0  0
   -1.8513   -9.1237    0.0000 C   0  0  0  0  0  0  0  0  0  0  0  0
   -3.1597   -8.3902    0.0000 O   0  0  0  0  0  0  0  0  0  0  0  0
   -4.4491   -9.1566    0.0000 C   0  0  0  0  0  0  0  0  0  0  0  0
   -5.1828  -10.4659    0.0000 C   0  0  0  0  0  0  0  0  0  0  0  0
   -5.9490   -9.1754    0.0000 C   0  0  0  0  0  0  0  0  0  0  0  0
   -7.2572   -8.4416    0.0000 O   0  0  0  0  0  0  0  0  0  0  0  0
    5.9487   -6.0633    0.0000 C   0  0  0  0  0  0  0  0  0  0  0  0
    7.2474   -6.8139    0.0000 C   0  0  0  0  0  0  0  0  0  0  0  0
    8.5476   -6.0643    0.0000 C   0  0  0  0  0  0  0  0  0  0  0  0
    9.8474   -6.8147    0.0000 C   0  0  0  0  0  0  0  0  0  0  0  0
    9.8469   -8.3147    0.0000 C   0  0  0  0  0  0  0  0  0  0  0  0
    8.5467   -9.0643    0.0000 C   0  0  0  0  0  0  0  0  0  0  0  0
    7.2469   -8.3139    0.0000 C   0  0  0  0  0  0  0  0  0  0  0  0
    5.9478   -9.0637    0.0000 Cl  0  0  0  0  0  0  0  0  0  0  0  0
   11.1466   -6.0649    0.0000 C   0  0  1  0  0  0  0  0  0  0  0  0
   12.4456   -6.8149    0.0000 C   0  0  1  0  0  0  0  0  0  0  0  0
   13.7451   -6.0641    0.0000 C   0  0  2  0  0  0  0  0  0  0  0  0
   13.7456   -4.5633    0.0000 C   0  0  1  0  0  0  0  0  0  0  0  0
   12.4466   -3.8133    0.0000 C   0  0  1  0  0  0  0  0  0  0  0  0
   12.4463   -2.3133    0.0000 C   0  0  0  0  0  0  0  0  0  0  0  0
   13.7452   -1.5631    0.0000 O   0  0  0  0  0  0  0  0  0  0  0  0
   11.1470   -4.5641    0.0000 O   0  0  0  0  0  0  0  0  0  0  0  0
   15.0447   -3.8135    0.0000 O   0  0  0  0  0  0  0  0  0  0  0  0
   15.0441   -6.8141    0.0000 O   0  0  0  0  0  0  0  0  0  0  0  0
   12.4458   -8.3149    0.0000 O   0  0  0  0  0  0  0  0  0  0  0  0
  1  2  2  0  0  0  0 
  2  3  1  0  0  0  0 
  3  4  2  0  0  0  0 
  4  5  1  0  0  0  0 
  5  6  2  0  0  0  0 
  1  6  1  0  0  0  0 
  5  7  1  0  0  0  0 
  7  8  1  0  0  0  0 
  8  9  1  0  0  0  0 
  9 10  1  0  0  0  0 
 10 11  1  0  0  0  0 
 11 12  1  0  0  0  0 
 12 13  1  0  0  0  0 
 11 13  1  0  0  0  0 
 13 14  1  0  0  0  0 
  2 15  1  0  0  0  0 
 15 16  1  0  0  0  0 
 16 17  2  0  0  0  0 
 17 18  1  0  0  0  0 
 18 19  2  0  0  0  0 
 19 20  1  0  0  0  0 
 20 21  2  0  0  0  0 
 16 21  1  0  0  0  0 
 21 22  1  0  0  0  0 
 23 18  1  6  0  0  0 
 23 24  1  0  0  0  0 
 24 25  1  0  0  0  0 
 25 26  1  0  0  0  0 
 26 27  1  0  0  0  0 
 27 28  1  6  0  0  0 
 28 29  1  0  0  0  0 
 27 30  1  0  0  0  0 
 23 30  1  0  0  0  0 
 26 31  1  1  0  0  0 
 25 32  1  6  0  0  0 
 24 33  1  1  0  0  0 
M  END
> <Rank>
6

> <Priority_score>
1.03

> <Reaction_type>
aliphatic hydroxylation

> <Parent_ID>
1

> <Parent_InChI>
InChI=1S/C24H29ClO7/c25-19-8-3-15(24-23(29)22(28)21(27)20(13-26)32-24)12-16(19)11-14-1-4-17(5-2-14)30-9-10-31-18-6-7-18/h1-5,8,12,18,20-24,26-29H,6-7,9-11,13H2/t20-,21-,22+,23-,24+/m1/s1

> <Parent_SMILES>
C1([H])=C(C([H])=C([H])C(=C1[H])OC([H])([H])C([H])([H])OC2([H])C([H])([H])C2([H])[H])C([H])([H])C3=C([H])C(=C([H])C([H])=C3Cl)[C@@]4([H])[C@@]([H])([C@]([H])([C@@]([H])([C@@]([H])(C([H])([H])O[H])O4)O[H])O[H])O[H]

$$$$

  CDK     1104240422

 32 35  0  0  0  0  0  0  0  0999 V2000
    2.7265   -4.9434    0.0000 C   0  0  0  0  0  0  0  0  0  0  0  0
    3.9998   -5.6877    0.0000 C   0  0  0  0  0  0  0  0  0  0  0  0
    4.0065   -7.1877    0.0000 C   0  0  0  0  0  0  0  0  0  0  0  0
    2.7399   -7.9433    0.0000 C   0  0  0  0  0  0  0  0  0  0  0  0
    1.3865   -7.1993    0.0000 C   0  0  0  0  0  0  0  0  0  0  0  0
    1.3799   -5.6994    0.0000 C   0  0  0  0  0  0  0  0  0  0  0  0
    0.0971   -7.9658    0.0000 O   0  0  0  0  0  0  0  0  0  0  0  0
   -1.2113   -7.2323    0.0000 C   0  0  0  0  0  0  0  0  0  0  0  0
   -2.5007   -7.9987    0.0000 C   0  0  0  0  0  0  0  0  0  0  0  0
   -3.8092   -7.2653    0.0000 O   0  0  0  0  0  0  0  0  0  0  0  0
   -5.0986   -8.0317    0.0000 C   0  0  0  0  0  0  0  0  0  0  0  0
   -5.8323   -9.3410    0.0000 C   0  0  0  0  0  0  0  0  0  0  0  0
   -6.5985   -8.0505    0.0000 C   0  0  0  0  0  0  0  0  0  0  0  0
    5.2992   -4.9384    0.0000 C   0  0  0  0  0  0  0  0  0  0  0  0
    6.5979   -5.6890    0.0000 C   0  0  0  0  0  0  0  0  0  0  0  0
    7.8982   -4.9394    0.0000 C   0  0  0  0  0  0  0  0  0  0  0  0
    9.1979   -5.6898    0.0000 C   0  0  0  0  0  0  0  0  0  0  0  0
    9.1974   -7.1898    0.0000 C   0  0  0  0  0  0  0  0  0  0  0  0
    7.8972   -7.9394    0.0000 C   0  0  0  0  0  0  0  0  0  0  0  0
    6.5974   -7.1890    0.0000 C   0  0  0  0  0  0  0  0  0  0  0  0
    5.2983   -7.9388    0.0000 Cl  0  0  0  0  0  0  0  0  0  0  0  0
   10.4971   -4.9400    0.0000 C   0  0  1  0  0  0  0  0  0  0  0  0
   11.7961   -5.6900    0.0000 C   0  0  1  0  0  0  0  0  0  0  0  0
   13.0956   -4.9392    0.0000 C   0  0  2  0  0  0  0  0  0  0  0  0
   13.0961   -3.4384    0.0000 C   0  0  1  0  0  0  0  0  0  0  0  0
   11.7971   -2.6884    0.0000 C   0  0  1  0  0  0  0  0  0  0  0  0
   11.7968   -1.1884    0.0000 C   0  0  0  0  0  0  0  0  0  0  0  0
   13.0958   -0.4381    0.0000 O   0  0  0  0  0  0  0  0  0  0  0  0
   10.4976   -3.4392    0.0000 O   0  0  0  0  0  0  0  0  0  0  0  0
   14.3953   -2.6886    0.0000 O   0  0  0  0  0  0  0  0  0  0  0  0
   14.3947   -5.6892    0.0000 O   0  0  0  0  0  0  0  0  0  0  0  0
   11.7964   -7.1900    0.0000 O   0  0  0  0  0  0  0  0  0  0  0  0
  1  2  2  0  0  0  0 
  2  3  1  0  0  0  0 
  3  4  2  0  0  0  0 
  4  5  1  0  0  0  0 
  5  6  2  0  0  0  0 
  1  6  1  0  0  0  0 
  5  7  1  0  0  0  0 
  7  8  1  0  0  0  0 
  8  9  1  0  0  0  0 
  9 10  1  0  0  0  0 
 10 11  1  0  0  0  0 
 11 12  2  0  0  0  0 
 12 13  1  0  0  0  0 
 11 13  1  0  0  0  0 
  2 14  1  0  0  0  0 
 14 15  1  0  0  0  0 
 15 16  2  0  0  0  0 
 16 17  1  0  0  0  0 
 17 18  2  0  0  0  0 
 18 19  1  0  0  0  0 
 19 20  2  0  0  0  0 
 15 20  1  0  0  0  0 
 20 21  1  0  0  0  0 
 22 17  1  6  0  0  0 
 22 23  1  0  0  0  0 
 23 24  1  0  0  0  0 
 24 25  1  0  0  0  0 
 25 26  1  0  0  0  0 
 26 27  1  6  0  0  0 
 27 28  1  0  0  0  0 
 26 29  1  0  0  0  0 
 22 29  1  0  0  0  0 
 25 30  1  1  0  0  0 
 24 31  1  6  0  0  0 
 23 32  1  1  0  0  0 
M  END
> <Rank>
7

> <Priority_score>
0.402

> <Reaction_type>
alkyl dehydrogenation

> <Parent_ID>
1

> <Parent_InChI>
InChI=1S/C24H29ClO7/c25-19-8-3-15(24-23(29)22(28)21(27)20(13-26)32-24)12-16(19)11-14-1-4-17(5-2-14)30-9-10-31-18-6-7-18/h1-5,8,12,18,20-24,26-29H,6-7,9-11,13H2/t20-,21-,22+,23-,24+/m1/s1

> <Parent_SMILES>
C1([H])=C(C([H])=C([H])C(=C1[H])OC([H])([H])C([H])([H])OC2([H])C([H])([H])C2([H])[H])C([H])([H])C3=C([H])C(=C([H])C([H])=C3Cl)[C@@]4([H])[C@@]([H])([C@]([H])([C@@]([H])([C@@]([H])(C([H])([H])O[H])O4)O[H])O[H])O[H]

$$$$

  CDK     1104240422

 32 35  0  0  0  0  0  0  0  0999 V2000
    2.7265   -4.9434    0.0000 C   0  0  0  0  0  0  0  0  0  0  0  0
    3.9998   -5.6877    0.0000 C   0  0  0  0  0  0  0  0  0  0  0  0
    4.0065   -7.1877    0.0000 C   0  0  0  0  0  0  0  0  0  0  0  0
    2.7399   -7.9433    0.0000 C   0  0  0  0  0  0  0  0  0  0  0  0
    1.3865   -7.1993    0.0000 C   0  0  0  0  0  0  0  0  0  0  0  0
    1.3799   -5.6994    0.0000 C   0  0  0  0  0  0  0  0  0  0  0  0
    0.0971   -7.9658    0.0000 O   0  0  0  0  0  0  0  0  0  0  0  0
   -1.2113   -7.2323    0.0000 C   0  0  0  0  0  0  0  0  0  0  0  0
   -2.5007   -7.9987    0.0000 C   0  0  0  0  0  0  0  0  0  0  0  0
   -3.8092   -7.2653    0.0000 O   0  0  0  0  0  0  0  0  0  0  0  0
   -5.0986   -8.0317    0.0000 C   0  0  0  0  0  0  0  0  0  0  0  0
   -5.8323   -9.3410    0.0000 C   0  0  0  0  0  0  0  0  0  0  0  0
   -6.5985   -8.0505    0.0000 C   0  0  0  0  0  0  0  0  0  0  0  0
    5.2992   -4.9384    0.0000 C   0  0  0  0  0  0  0  0  0  0  0  0
    6.5979   -5.6890    0.0000 C   0  0  0  0  0  0  0  0  0  0  0  0
    7.8982   -4.9394    0.0000 C   0  0  0  0  0  0  0  0  0  0  0  0
    9.1979   -5.6898    0.0000 C   0  0  0  0  0  0  0  0  0  0  0  0
    9.1974   -7.1898    0.0000 C   0  0  0  0  0  0  0  0  0  0  0  0
    7.8972   -7.9394    0.0000 C   0  0  0  0  0  0  0  0  0  0  0  0
    6.5974   -7.1890    0.0000 C   0  0  0  0  0  0  0  0  0  0  0  0
    5.2983   -7.9388    0.0000 Cl  0  0  0  0  0  0  0  0  0  0  0  0
   10.4971   -4.9400    0.0000 C   0  0  1  0  0  0  0  0  0  0  0  0
   11.7961   -5.6900    0.0000 C   0  0  1  0  0  0  0  0  0  0  0  0
   13.0956   -4.9392    0.0000 C   0  0  2  0  0  0  0  0  0  0  0  0
   13.0961   -3.4384    0.0000 C   0  0  1  0  0  0  0  0  0  0  0  0
   11.7971   -2.6884    0.0000 C   0  0  1  0  0  0  0  0  0  0  0  0
   11.7968   -1.1884    0.0000 C   0  0  0  0  0  0  0  0  0  0  0  0
   13.0958   -0.4381    0.0000 O   0  0  0  0  0  0  0  0  0  0  0  0
   10.4976   -3.4392    0.0000 O   0  0  0  0  0  0  0  0  0  0  0  0
   14.3953   -2.6886    0.0000 O   0  0  0  0  0  0  0  0  0  0  0  0
   14.3947   -5.6892    0.0000 O   0  0  0  0  0  0  0  0  0  0  0  0
   11.7964   -7.1900    0.0000 O   0  0  0  0  0  0  0  0  0  0  0  0
  1  2  2  0  0  0  0 
  2  3  1  0  0  0  0 
  3  4  2  0  0  0  0 
  4  5  1  0  0  0  0 
  5  6  2  0  0  0  0 
  1  6  1  0  0  0  0 
  5  7  1  0  0  0  0 
  7  8  1  0  0  0  0 
  8  9  1  0  0  0  0 
  9 10  1  0  0  0  0 
 10 11  1  0  0  0  0 
 11 12  1  0  0  0  0 
 12 13  2  0  0  0  0 
 11 13  1  0  0  0  0 
  2 14  1  0  0  0  0 
 14 15  1  0  0  0  0 
 15 16  2  0  0  0  0 
 16 17  1  0  0  0  0 
 17 18  2  0  0  0  0 
 18 19  1  0  0  0  0 
 19 20  2  0  0  0  0 
 15 20  1  0  0  0  0 
 20 21  1  0  0  0  0 
 22 17  1  6  0  0  0 
 22 23  1  0  0  0  0 
 23 24  1  0  0  0  0 
 24 25  1  0  0  0  0 
 25 26  1  0  0  0  0 
 26 27  1  6  0  0  0 
 27 28  1  0  0  0  0 
 26 29  1  0  0  0  0 
 22 29  1  0  0  0  0 
 25 30  1  1  0  0  0 
 24 31  1  6  0  0  0 
 23 32  1  1  0  0  0 
M  END
> <Rank>
8

> <Priority_score>
0.206

> <Reaction_type>
alkyl dehydrogenation

> <Parent_ID>
1

> <Parent_InChI>
InChI=1S/C24H29ClO7/c25-19-8-3-15(24-23(29)22(28)21(27)20(13-26)32-24)12-16(19)11-14-1-4-17(5-2-14)30-9-10-31-18-6-7-18/h1-5,8,12,18,20-24,26-29H,6-7,9-11,13H2/t20-,21-,22+,23-,24+/m1/s1

> <Parent_SMILES>
C1([H])=C(C([H])=C([H])C(=C1[H])OC([H])([H])C([H])([H])OC2([H])C([H])([H])C2([H])[H])C([H])([H])C3=C([H])C(=C([H])C([H])=C3Cl)[C@@]4([H])[C@@]([H])([C@]([H])([C@@]([H])([C@@]([H])(C([H])([H])O[H])O4)O[H])O[H])O[H]

$$$$
