
  CDK     1104240448

 29 32  0  0  0  0  0  0  0  0999 V2000
   -2.6000    0.7500    0.0000 C   0  0  0  0  0  0  0  0  0  0  0  0
   -2.6000   -0.7500    0.0000 C   0  0  0  0  0  0  0  0  0  0  0  0
   -1.3000   -1.5000    0.0000 C   0  0  0  0  0  0  0  0  0  0  0  0
   -0.0000   -0.7500    0.0000 C   0  0  0  0  0  0  0  0  0  0  0  0
   -0.0000    0.7500    0.0000 C   0  0  0  0  0  0  0  0  0  0  0  0
   -1.3000    1.5000    0.0000 C   0  0  0  0  0  0  0  0  0  0  0  0
    1.3000    1.5000    0.0000 C   0  0  0  0  0  0  0  0  0  0  0  0
    2.6000    0.7500    0.0000 C   0  0  0  0  0  0  0  0  0  0  0  0
    2.6000   -0.7500    0.0000 C   0  0  0  0  0  0  0  0  0  0  0  0
    1.3000   -1.5000    0.0000 N   0  0  0  0  0  0  0  0  0  0  0  0
    3.8989    1.5002    0.0000 O   0  0  0  0  0  0  0  0  0  0  0  0
   -1.3000   -3.0000    0.0000 S   0  0  0  0  0  0  0  0  0  0  0  0
   -0.7870   -4.4095    0.0000 O   0  0  0  0  0  0  0  0  0  0  0  0
    0.1772   -2.7395    0.0000 O   0  0  0  0  0  0  0  0  0  0  0  0
   -2.5990   -3.7500    0.0000 N   0  0  0  0  0  0  0  0  0  0  0  0
   -2.5990   -5.2500    0.0000 C   0  0  0  0  0  0  0  0  0  0  0  0
   -1.2994   -6.0006    0.0000 C   0  0  0  0  0  0  0  0  0  0  0  0
   -1.2987   -7.5015    0.0000 C   0  0  0  0  0  0  0  0  0  0  0  0
   -2.5976   -8.2517    0.0000 C   0  0  0  0  0  0  0  0  0  0  0  0
   -3.8972   -7.5010    0.0000 C   0  0  0  0  0  0  0  0  0  0  0  0
   -3.8980   -6.0002    0.0000 C   0  0  0  0  0  0  0  0  0  0  0  0
   -2.5976   -9.7517    0.0000 C   0  0  0  0  0  0  0  0  0  0  0  0
   -1.2986  -10.5017    0.0000 O   0  0  0  0  0  0  0  0  0  0  0  0
   -3.8966  -10.5017    0.0000 N   0  0  0  0  0  0  0  0  0  0  0  0
   -3.8962  -12.0025    0.0000 C   0  0  0  0  0  0  0  0  0  0  0  0
   -5.1952  -12.7525    0.0000 C   0  0  0  0  0  0  0  0  0  0  0  0
   -6.4947  -12.0017    0.0000 N   0  0  0  0  0  0  0  0  0  0  0  0
   -6.4952  -10.5008    0.0000 C   0  0  0  0  0  0  0  0  0  0  0  0
   -5.1962   -9.7508    0.0000 C   0  0  0  0  0  0  0  0  0  0  0  0
  1  2  2  0  0  0  0 
  2  3  1  0  0  0  0 
  3  4  2  0  0  0  0 
  4  5  1  0  0  0  0 
  5  6  2  0  0  0  0 
  1  6  1  0  0  0  0 
  5  7  1  0  0  0  0 
  7  8  2  0  0  0  0 
  8  9  1  0  0  0  0 
  9 10  2  0  0  0  0 
  4 10  1  0  0  0  0 
  8 11  1  0  0  0  0 
  3 12  1  0  0  0  0 
 12 13  2  0  0  0  0 
 12 14  2  0  0  0  0 
 12 15  1  0  0  0  0 
 15 16  1  0  0  0  0 
 16 17  2  0  0  0  0 
 17 18  1  0  0  0  0 
 18 19  2  0  0  0  0 
 19 20  1  0  0  0  0 
 20 21  2  0  0  0  0 
 16 21  1  0  0  0  0 
 19 22  1  0  0  0  0 
 22 23  2  0  0  0  0 
 22 24  1  0  0  0  0 
 24 25  1  0  0  0  0 
 25 26  1  0  0  0  0 
 26 27  1  0  0  0  0 
 27 28  1  0  0  0  0 
 28 29  1  0  0  0  0 
 24 29  1  0  0  0  0 
M  END
> <Rank>
1

> <Priority_score>
2.74

> <Reaction_type>
aromatic hydroxylation

> <Parent_ID>
1

> <Parent_InChI>
InChI=1S/C20H20N4O3S/c25-20(24-13-11-21-12-14-24)16-6-8-17(9-7-16)23-28(26,27)18-5-1-3-15-4-2-10-22-19(15)18/h1-10,21,23H,11-14H2

> <Parent_SMILES>
C1([H])=C([H])C(=C2C(=C1[H])C([H])=C([H])C([H])=N2)S(=O)(=O)N([H])C3=C([H])C([H])=C(C([H])=C3[H])C(=O)N4C([H])([H])C([H])([H])N([H])C([H])([H])C4([H])[H]

$$$$

  CDK     1104240448

 26 28  0  0  0  0  0  0  0  0999 V2000
   -2.6000    0.7500    0.0000 C   0  0  0  0  0  0  0  0  0  0  0  0
   -2.6000   -0.7500    0.0000 C   0  0  0  0  0  0  0  0  0  0  0  0
   -1.3000   -1.5000    0.0000 C   0  0  0  0  0  0  0  0  0  0  0  0
   -0.0000   -0.7500    0.0000 C   0  0  0  0  0  0  0  0  0  0  0  0
   -0.0000    0.7500    0.0000 C   0  0  0  0  0  0  0  0  0  0  0  0
   -1.3000    1.5000    0.0000 C   0  0  0  0  0  0  0  0  0  0  0  0
    1.3000    1.5000    0.0000 C   0  0  0  0  0  0  0  0  0  0  0  0
    2.6000    0.7500    0.0000 C   0  0  0  0  0  0  0  0  0  0  0  0
    2.6000   -0.7500    0.0000 C   0  0  0  0  0  0  0  0  0  0  0  0
    1.3000   -1.5000    0.0000 N   0  0  0  0  0  0  0  0  0  0  0  0
   -1.3000   -3.0000    0.0000 S   0  0  0  0  0  0  0  0  0  0  0  0
   -0.7870   -4.4095    0.0000 O   0  0  0  0  0  0  0  0  0  0  0  0
    0.1772   -2.7395    0.0000 O   0  0  0  0  0  0  0  0  0  0  0  0
   -2.5990   -3.7500    0.0000 N   0  0  0  0  0  0  0  0  0  0  0  0
   -2.5990   -5.2500    0.0000 C   0  0  0  0  0  0  0  0  0  0  0  0
   -1.2994   -6.0006    0.0000 C   0  0  0  0  0  0  0  0  0  0  0  0
   -1.2987   -7.5015    0.0000 C   0  0  0  0  0  0  0  0  0  0  0  0
   -2.5976   -8.2517    0.0000 C   0  0  0  0  0  0  0  0  0  0  0  0
   -3.8972   -7.5010    0.0000 C   0  0  0  0  0  0  0  0  0  0  0  0
   -3.8980   -6.0002    0.0000 C   0  0  0  0  0  0  0  0  0  0  0  0
   -2.5976   -9.7517    0.0000 C   0  0  0  0  0  0  0  0  0  0  0  0
   -1.2986  -10.5017    0.0000 O   0  0  0  0  0  0  0  0  0  0  0  0
   -3.8966  -10.5017    0.0000 N   0  0  0  0  0  0  0  0  0  0  0  0
   -3.8966  -12.0017    0.0000 C   0  0  0  0  0  0  0  0  0  0  0  0
   -5.1957  -12.7517    0.0000 C   0  0  0  0  0  0  0  0  0  0  0  0
   -5.1957  -14.2517    0.0000 N   0  0  0  0  0  0  0  0  0  0  0  0
  1  2  2  0  0  0  0 
  2  3  1  0  0  0  0 
  3  4  2  0  0  0  0 
  4  5  1  0  0  0  0 
  5  6  2  0  0  0  0 
  1  6  1  0  0  0  0 
  5  7  1  0  0  0  0 
  7  8  2  0  0  0  0 
  8  9  1  0  0  0  0 
  9 10  2  0  0  0  0 
  4 10  1  0  0  0  0 
  3 11  1  0  0  0  0 
 11 12  2  0  0  0  0 
 11 13  2  0  0  0  0 
 11 14  1  0  0  0  0 
 14 15  1  0  0  0  0 
 15 16  2  0  0  0  0 
 16 17  1  0  0  0  0 
 17 18  2  0  0  0  0 
 18 19  1  0  0  0  0 
 19 20  2  0  0  0  0 
 15 20  1  0  0  0  0 
 18 21  1  0  0  0  0 
 21 22  2  0  0  0  0 
 21 23  1  0  0  0  0 
 23 24  1  0  0  0  0 
 24 25  1  0  0  0  0 
 25 26  1  0  0  0  0 
M  END
> <Rank>
2

> <Priority_score>
1.62

> <Reaction_type>
N-dealkylation of piperazine

> <Parent_ID>
1

> <Parent_InChI>
InChI=1S/C20H20N4O3S/c25-20(24-13-11-21-12-14-24)16-6-8-17(9-7-16)23-28(26,27)18-5-1-3-15-4-2-10-22-19(15)18/h1-10,21,23H,11-14H2

> <Parent_SMILES>
C1([H])=C([H])C(=C2C(=C1[H])C([H])=C([H])C([H])=N2)S(=O)(=O)N([H])C3=C([H])C([H])=C(C([H])=C3[H])C(=O)N4C([H])([H])C([H])([H])N([H])C([H])([H])C4([H])[H]

$$$$

  CDK     1104240448

 29 31  0  0  0  0  0  0  0  0999 V2000
   -2.6000    0.7500    0.0000 C   0  0  0  0  0  0  0  0  0  0  0  0
   -2.6000   -0.7500    0.0000 C   0  0  0  0  0  0  0  0  0  0  0  0
   -1.3000   -1.5000    0.0000 C   0  0  0  0  0  0  0  0  0  0  0  0
   -0.0000   -0.7500    0.0000 C   0  0  0  0  0  0  0  0  0  0  0  0
   -0.0000    0.7500    0.0000 C   0  0  0  0  0  0  0  0  0  0  0  0
   -1.3000    1.5000    0.0000 C   0  0  0  0  0  0  0  0  0  0  0  0
    1.3000    1.5000    0.0000 C   0  0  0  0  0  0  0  0  0  0  0  0
    2.6000    0.7500    0.0000 C   0  0  0  0  0  0  0  0  0  0  0  0
    2.6000   -0.7500    0.0000 C   0  0  0  0  0  0  0  0  0  0  0  0
    1.3000   -1.5000    0.0000 N   0  0  0  0  0  0  0  0  0  0  0  0
   -1.3000   -3.0000    0.0000 S   0  0  0  0  0  0  0  0  0  0  0  0
   -0.7870   -4.4095    0.0000 O   0  0  0  0  0  0  0  0  0  0  0  0
    0.1772   -2.7395    0.0000 O   0  0  0  0  0  0  0  0  0  0  0  0
   -2.5990   -3.7500    0.0000 N   0  0  0  0  0  0  0  0  0  0  0  0
   -2.5990   -5.2500    0.0000 C   0  0  0  0  0  0  0  0  0  0  0  0
   -1.2994   -6.0006    0.0000 C   0  0  0  0  0  0  0  0  0  0  0  0
   -1.2987   -7.5015    0.0000 C   0  0  0  0  0  0  0  0  0  0  0  0
   -2.5976   -8.2517    0.0000 C   0  0  0  0  0  0  0  0  0  0  0  0
   -3.8972   -7.5010    0.0000 C   0  0  0  0  0  0  0  0  0  0  0  0
   -3.8980   -6.0002    0.0000 C   0  0  0  0  0  0  0  0  0  0  0  0
   -2.5976   -9.7517    0.0000 C   0  0  0  0  0  0  0  0  0  0  0  0
   -1.2986  -10.5017    0.0000 O   0  0  0  0  0  0  0  0  0  0  0  0
   -3.8966  -10.5017    0.0000 N   0  0  0  0  0  0  0  0  0  0  0  0
   -3.8966  -12.0017    0.0000 C   0  0  0  0  0  0  0  0  0  0  0  0
   -5.1957  -12.7517    0.0000 C   0  0  0  0  0  0  0  0  0  0  0  0
   -5.1957  -14.2517    0.0000 N   0  0  0  0  0  0  0  0  0  0  0  0
   -5.1957   -9.7517    0.0000 C   0  0  0  0  0  0  0  0  0  0  0  0
   -6.4947  -10.5017    0.0000 C   0  0  0  0  0  0  0  0  0  0  0  0
   -6.4947  -12.0017    0.0000 O   0  0  0  0  0  0  0  0  0  0  0  0
  1  2  2  0  0  0  0 
  2  3  1  0  0  0  0 
  3  4  2  0  0  0  0 
  4  5  1  0  0  0  0 
  5  6  2  0  0  0  0 
  1  6  1  0  0  0  0 
  5  7  1  0  0  0  0 
  7  8  2  0  0  0  0 
  8  9  1  0  0  0  0 
  9 10  2  0  0  0  0 
  4 10  1  0  0  0  0 
  3 11  1  0  0  0  0 
 11 12  2  0  0  0  0 
 11 13  2  0  0  0  0 
 11 14  1  0  0  0  0 
 14 15  1  0  0  0  0 
 15 16  2  0  0  0  0 
 16 17  1  0  0  0  0 
 17 18  2  0  0  0  0 
 18 19  1  0  0  0  0 
 19 20  2  0  0  0  0 
 15 20  1  0  0  0  0 
 18 21  1  0  0  0  0 
 21 22  2  0  0  0  0 
 21 23  1  0  0  0  0 
 23 24  1  0  0  0  0 
 24 25  1  0  0  0  0 
 25 26  1  0  0  0  0 
 23 27  1  0  0  0  0 
 27 28  1  0  0  0  0 
 28 29  2  0  0  0  0 
M  END
> <Rank>
2

> <Priority_score>
1.62

> <Reaction_type>
N-dealkylation

> <Parent_ID>
1

> <Parent_InChI>
InChI=1S/C20H20N4O3S/c25-20(24-13-11-21-12-14-24)16-6-8-17(9-7-16)23-28(26,27)18-5-1-3-15-4-2-10-22-19(15)18/h1-10,21,23H,11-14H2

> <Parent_SMILES>
C1([H])=C([H])C(=C2C(=C1[H])C([H])=C([H])C([H])=N2)S(=O)(=O)N([H])C3=C([H])C([H])=C(C([H])=C3[H])C(=O)N4C([H])([H])C([H])([H])N([H])C([H])([H])C4([H])[H]

$$$$

  CDK     1104240448

 29 32  0  0  0  0  0  0  0  0999 V2000
   -2.6000    0.7500    0.0000 C   0  0  0  0  0  0  0  0  0  0  0  0
   -2.6000   -0.7500    0.0000 C   0  0  0  0  0  0  0  0  0  0  0  0
   -1.3000   -1.5000    0.0000 C   0  0  0  0  0  0  0  0  0  0  0  0
   -0.0000   -0.7500    0.0000 C   0  0  0  0  0  0  0  0  0  0  0  0
   -0.0000    0.7500    0.0000 C   0  0  0  0  0  0  0  0  0  0  0  0
   -1.3000    1.5000    0.0000 C   0  0  0  0  0  0  0  0  0  0  0  0
    1.3000    1.5000    0.0000 C   0  0  0  0  0  0  0  0  0  0  0  0
    2.6000    0.7500    0.0000 C   0  0  0  0  0  0  0  0  0  0  0  0
    2.6000   -0.7500    0.0000 C   0  0  0  0  0  0  0  0  0  0  0  0
    1.3000   -1.5000    0.0000 N   0  0  0  0  0  0  0  0  0  0  0  0
   -1.3000   -3.0000    0.0000 S   0  0  0  0  0  0  0  0  0  0  0  0
   -0.7870   -4.4095    0.0000 O   0  0  0  0  0  0  0  0  0  0  0  0
    0.1772   -2.7395    0.0000 O   0  0  0  0  0  0  0  0  0  0  0  0
   -2.5990   -3.7500    0.0000 N   0  0  0  0  0  0  0  0  0  0  0  0
   -2.5990   -5.2500    0.0000 C   0  0  0  0  0  0  0  0  0  0  0  0
   -1.2994   -6.0006    0.0000 C   0  0  0  0  0  0  0  0  0  0  0  0
   -1.2987   -7.5015    0.0000 C   0  0  0  0  0  0  0  0  0  0  0  0
   -2.5976   -8.2517    0.0000 C   0  0  0  0  0  0  0  0  0  0  0  0
   -3.8972   -7.5010    0.0000 C   0  0  0  0  0  0  0  0  0  0  0  0
   -3.8980   -6.0002    0.0000 C   0  0  0  0  0  0  0  0  0  0  0  0
   -2.5976   -9.7517    0.0000 C   0  0  0  0  0  0  0  0  0  0  0  0
   -1.2986  -10.5017    0.0000 O   0  0  0  0  0  0  0  0  0  0  0  0
   -3.8966  -10.5017    0.0000 N   0  0  0  0  0  0  0  0  0  0  0  0
   -3.8962  -12.0025    0.0000 C   0  0  0  0  0  0  0  0  0  0  0  0
   -5.1952  -12.7525    0.0000 C   0  0  0  0  0  0  0  0  0  0  0  0
   -6.4947  -12.0017    0.0000 N   0  0  0  0  0  0  0  0  0  0  0  0
   -6.4952  -10.5008    0.0000 C   0  0  0  0  0  0  0  0  0  0  0  0
   -5.1962   -9.7508    0.0000 C   0  0  0  0  0  0  0  0  0  0  0  0
   -7.7937  -12.7517    0.0000 O   0  0  0  0  0  0  0  0  0  0  0  0
  1  2  2  0  0  0  0 
  2  3  1  0  0  0  0 
  3  4  2  0  0  0  0 
  4  5  1  0  0  0  0 
  5  6  2  0  0  0  0 
  1  6  1  0  0  0  0 
  5  7  1  0  0  0  0 
  7  8  2  0  0  0  0 
  8  9  1  0  0  0  0 
  9 10  2  0  0  0  0 
  4 10  1  0  0  0  0 
  3 11  1  0  0  0  0 
 11 12  2  0  0  0  0 
 11 13  2  0  0  0  0 
 11 14  1  0  0  0  0 
 14 15  1  0  0  0  0 
 15 16  2  0  0  0  0 
 16 17  1  0  0  0  0 
 17 18  2  0  0  0  0 
 18 19  1  0  0  0  0 
 19 20  2  0  0  0  0 
 15 20  1  0  0  0  0 
 18 21  1  0  0  0  0 
 21 22  2  0  0  0  0 
 21 23  1  0  0  0  0 
 23 24  1  0  0  0  0 
 24 25  1  0  0  0  0 
 25 26  1  0  0  0  0 
 26 27  1  0  0  0  0 
 27 28  1  0  0  0  0 
 23 28  1  0  0  0  0 
 26 29  1  0  0  0  0 
M  END
> <Rank>
2

> <Priority_score>
1.62

> <Reaction_type>
amine hydroxylation

> <Parent_ID>
1

> <Parent_InChI>
InChI=1S/C20H20N4O3S/c25-20(24-13-11-21-12-14-24)16-6-8-17(9-7-16)23-28(26,27)18-5-1-3-15-4-2-10-22-19(15)18/h1-10,21,23H,11-14H2

> <Parent_SMILES>
C1([H])=C([H])C(=C2C(=C1[H])C([H])=C([H])C([H])=N2)S(=O)(=O)N([H])C3=C([H])C([H])=C(C([H])=C3[H])C(=O)N4C([H])([H])C([H])([H])N([H])C([H])([H])C4([H])[H]

$$$$

  CDK     1104240448

 29 32  0  0  0  0  0  0  0  0999 V2000
   -2.6000    0.7500    0.0000 C   0  0  0  0  0  0  0  0  0  0  0  0
   -2.6000   -0.7500    0.0000 C   0  0  0  0  0  0  0  0  0  0  0  0
   -1.3000   -1.5000    0.0000 C   0  0  0  0  0  0  0  0  0  0  0  0
   -0.0000   -0.7500    0.0000 C   0  0  0  0  0  0  0  0  0  0  0  0
   -0.0000    0.7500    0.0000 C   0  0  0  0  0  0  0  0  0  0  0  0
   -1.3000    1.5000    0.0000 C   0  0  0  0  0  0  0  0  0  0  0  0
    1.3000    1.5000    0.0000 C   0  0  0  0  0  0  0  0  0  0  0  0
    2.6000    0.7500    0.0000 C   0  0  0  0  0  0  0  0  0  0  0  0
    2.6000   -0.7500    0.0000 C   0  0  0  0  0  0  0  0  0  0  0  0
    1.3000   -1.5000    0.0000 N   0  0  0  0  0  0  0  0  0  0  0  0
   -1.3000   -3.0000    0.0000 S   0  0  0  0  0  0  0  0  0  0  0  0
   -0.7870   -4.4095    0.0000 O   0  0  0  0  0  0  0  0  0  0  0  0
    0.1772   -2.7395    0.0000 O   0  0  0  0  0  0  0  0  0  0  0  0
   -2.5990   -3.7500    0.0000 N   0  0  0  0  0  0  0  0  0  0  0  0
   -2.5990   -5.2500    0.0000 C   0  0  0  0  0  0  0  0  0  0  0  0
   -1.2994   -6.0006    0.0000 C   0  0  0  0  0  0  0  0  0  0  0  0
   -1.2987   -7.5015    0.0000 C   0  0  0  0  0  0  0  0  0  0  0  0
   -2.5976   -8.2517    0.0000 C   0  0  0  0  0  0  0  0  0  0  0  0
   -3.8972   -7.5010    0.0000 C   0  0  0  0  0  0  0  0  0  0  0  0
   -3.8980   -6.0002    0.0000 C   0  0  0  0  0  0  0  0  0  0  0  0
   -2.5976   -9.7517    0.0000 C   0  0  0  0  0  0  0  0  0  0  0  0
   -1.2986  -10.5017    0.0000 O   0  0  0  0  0  0  0  0  0  0  0  0
   -3.8966  -10.5017    0.0000 N   0  0  0  0  0  0  0  0  0  0  0  0
   -3.8962  -12.0025    0.0000 C   0  0  0  0  0  0  0  0  0  0  0  0
   -5.1952  -12.7525    0.0000 C   0  0  0  0  0  0  0  0  0  0  0  0
   -6.4947  -12.0017    0.0000 N   0  0  0  0  0  0  0  0  0  0  0  0
   -6.4952  -10.5008    0.0000 C   0  0  0  0  0  0  0  0  0  0  0  0
   -5.1962   -9.7508    0.0000 C   0  0  0  0  0  0  0  0  0  0  0  0
   -7.7943   -9.7510    0.0000 O   0  0  0  0  0  0  0  0  0  0  0  0
  1  2  2  0  0  0  0 
  2  3  1  0  0  0  0 
  3  4  2  0  0  0  0 
  4  5  1  0  0  0  0 
  5  6  2  0  0  0  0 
  1  6  1  0  0  0  0 
  5  7  1  0  0  0  0 
  7  8  2  0  0  0  0 
  8  9  1  0  0  0  0 
  9 10  2  0  0  0  0 
  4 10  1  0  0  0  0 
  3 11  1  0  0  0  0 
 11 12  2  0  0  0  0 
 11 13  2  0  0  0  0 
 11 14  1  0  0  0  0 
 14 15  1  0  0  0  0 
 15 16  2  0  0  0  0 
 16 17  1  0  0  0  0 
 17 18  2  0  0  0  0 
 18 19  1  0  0  0  0 
 19 20  2  0  0  0  0 
 15 20  1  0  0  0  0 
 18 21  1  0  0  0  0 
 21 22  2  0  0  0  0 
 21 23  1  0  0  0  0 
 23 24  1  0  0  0  0 
 24 25  1  0  0  0  0 
 25 26  1  0  0  0  0 
 26 27  1  0  0  0  0 
 27 28  1  0  0  0  0 
 23 28  1  0  0  0  0 
 27 29  1  0  0  0  0 
M  END
> <Rank>
2

> <Priority_score>
1.62

> <Reaction_type>
aliphatic hydroxylation

> <Parent_ID>
1

> <Parent_InChI>
InChI=1S/C20H20N4O3S/c25-20(24-13-11-21-12-14-24)16-6-8-17(9-7-16)23-28(26,27)18-5-1-3-15-4-2-10-22-19(15)18/h1-10,21,23H,11-14H2

> <Parent_SMILES>
C1([H])=C([H])C(=C2C(=C1[H])C([H])=C([H])C([H])=N2)S(=O)(=O)N([H])C3=C([H])C([H])=C(C([H])=C3[H])C(=O)N4C([H])([H])C([H])([H])N([H])C([H])([H])C4([H])[H]

$$$$

  CDK     1104240448

 29 32  0  0  0  0  0  0  0  0999 V2000
    2.6000    0.7500    0.0000 C   0  0  0  0  0  0  0  0  0  0  0  0
    2.6000   -0.7500    0.0000 C   0  0  0  0  0  0  0  0  0  0  0  0
    1.3000   -1.5000    0.0000 N   0  0  0  0  0  0  0  0  0  0  0  0
   -0.0000   -0.7500    0.0000 C   0  0  0  0  0  0  0  0  0  0  0  0
   -0.0000    0.7500    0.0000 C   0  0  0  0  0  0  0  0  0  0  0  0
    1.3000    1.5000    0.0000 C   0  0  0  0  0  0  0  0  0  0  0  0
   -1.3000    1.5000    0.0000 C   0  0  0  0  0  0  0  0  0  0  0  0
   -2.6000    0.7500    0.0000 C   0  0  0  0  0  0  0  0  0  0  0  0
   -2.6000   -0.7500    0.0000 C   0  0  0  0  0  0  0  0  0  0  0  0
   -1.3000   -1.5000    0.0000 C   0  0  0  0  0  0  0  0  0  0  0  0
   -1.3000   -3.0000    0.0000 S   0  0  0  0  0  0  0  0  0  0  0  0
   -0.7870   -4.4095    0.0000 O   0  0  0  0  0  0  0  0  0  0  0  0
    0.1772   -2.7395    0.0000 O   0  0  0  0  0  0  0  0  0  0  0  0
   -2.5990   -3.7500    0.0000 N   0  0  0  0  0  0  0  0  0  0  0  0
   -2.5990   -5.2500    0.0000 C   0  0  0  0  0  0  0  0  0  0  0  0
   -1.2994   -6.0006    0.0000 C   0  0  0  0  0  0  0  0  0  0  0  0
   -1.2987   -7.5015    0.0000 C   0  0  0  0  0  0  0  0  0  0  0  0
   -2.5976   -8.2517    0.0000 C   0  0  0  0  0  0  0  0  0  0  0  0
   -3.8972   -7.5010    0.0000 C   0  0  0  0  0  0  0  0  0  0  0  0
   -3.8980   -6.0002    0.0000 C   0  0  0  0  0  0  0  0  0  0  0  0
   -2.5976   -9.7517    0.0000 C   0  0  0  0  0  0  0  0  0  0  0  0
   -1.2986  -10.5017    0.0000 O   0  0  0  0  0  0  0  0  0  0  0  0
   -3.8966  -10.5017    0.0000 N   0  0  0  0  0  0  0  0  0  0  0  0
   -3.8962  -12.0025    0.0000 C   0  0  0  0  0  0  0  0  0  0  0  0
   -5.1952  -12.7525    0.0000 C   0  0  0  0  0  0  0  0  0  0  0  0
   -6.4947  -12.0017    0.0000 N   0  0  0  0  0  0  0  0  0  0  0  0
   -6.4952  -10.5008    0.0000 C   0  0  0  0  0  0  0  0  0  0  0  0
   -5.1962   -9.7508    0.0000 C   0  0  0  0  0  0  0  0  0  0  0  0
   -1.3000    3.0000    0.0000 O   0  0  0  0  0  0  0  0  0  0  0  0
  1  2  2  0  0  0  0 
  2  3  1  0  0  0  0 
  3  4  2  0  0  0  0 
  4  5  1  0  0  0  0 
  5  6  2  0  0  0  0 
  1  6  1  0  0  0  0 
  5  7  1  0  0  0  0 
  7  8  2  0  0  0  0 
  8  9  1  0  0  0  0 
  9 10  2  0  0  0  0 
  4 10  1  0  0  0  0 
 10 11  1  0  0  0  0 
 11 12  2  0  0  0  0 
 11 13  2  0  0  0  0 
 11 14  1  0  0  0  0 
 14 15  1  0  0  0  0 
 15 16  2  0  0  0  0 
 16 17  1  0  0  0  0 
 17 18  2  0  0  0  0 
 18 19  1  0  0  0  0 
 19 20  2  0  0  0  0 
 15 20  1  0  0  0  0 
 18 21  1  0  0  0  0 
 21 22  2  0  0  0  0 
 21 23  1  0  0  0  0 
 23 24  1  0  0  0  0 
 24 25  1  0  0  0  0 
 25 26  1  0  0  0  0 
 26 27  1  0  0  0  0 
 27 28  1  0  0  0  0 
 23 28  1  0  0  0  0 
  7 29  1  0  0  0  0 
M  END
> <Rank>
6

> <Priority_score>
1.06

> <Reaction_type>
aromatic hydroxylation

> <Parent_ID>
1

> <Parent_InChI>
InChI=1S/C20H20N4O3S/c25-20(24-13-11-21-12-14-24)16-6-8-17(9-7-16)23-28(26,27)18-5-1-3-15-4-2-10-22-19(15)18/h1-10,21,23H,11-14H2

> <Parent_SMILES>
C1([H])=C([H])C(=C2C(=C1[H])C([H])=C([H])C([H])=N2)S(=O)(=O)N([H])C3=C([H])C([H])=C(C([H])=C3[H])C(=O)N4C([H])([H])C([H])([H])N([H])C([H])([H])C4([H])[H]

$$$$

  CDK     1104240448

 28 31  0  0  0  0  0  0  0  0999 V2000
   -2.6000    0.7500    0.0000 C   0  0  0  0  0  0  0  0  0  0  0  0
   -2.6000   -0.7500    0.0000 C   0  0  0  0  0  0  0  0  0  0  0  0
   -1.3000   -1.5000    0.0000 C   0  0  0  0  0  0  0  0  0  0  0  0
   -0.0000   -0.7500    0.0000 C   0  0  0  0  0  0  0  0  0  0  0  0
   -0.0000    0.7500    0.0000 C   0  0  0  0  0  0  0  0  0  0  0  0
   -1.3000    1.5000    0.0000 C   0  0  0  0  0  0  0  0  0  0  0  0
    1.3000    1.5000    0.0000 C   0  0  0  0  0  0  0  0  0  0  0  0
    2.6000    0.7500    0.0000 C   0  0  0  0  0  0  0  0  0  0  0  0
    2.6000   -0.7500    0.0000 C   0  0  0  0  0  0  0  0  0  0  0  0
    1.3000   -1.5000    0.0000 N   0  0  0  0  0  0  0  0  0  0  0  0
   -1.3000   -3.0000    0.0000 S   0  0  0  0  0  0  0  0  0  0  0  0
   -0.7870   -4.4095    0.0000 O   0  0  0  0  0  0  0  0  0  0  0  0
    0.1772   -2.7395    0.0000 O   0  0  0  0  0  0  0  0  0  0  0  0
   -2.5990   -3.7500    0.0000 N   0  0  0  0  0  0  0  0  0  0  0  0
   -2.5990   -5.2500    0.0000 C   0  0  0  0  0  0  0  0  0  0  0  0
   -1.2994   -6.0006    0.0000 C   0  0  0  0  0  0  0  0  0  0  0  0
   -1.2987   -7.5015    0.0000 C   0  0  0  0  0  0  0  0  0  0  0  0
   -2.5976   -8.2517    0.0000 C   0  0  0  0  0  0  0  0  0  0  0  0
   -3.8972   -7.5010    0.0000 C   0  0  0  0  0  0  0  0  0  0  0  0
   -3.8980   -6.0002    0.0000 C   0  0  0  0  0  0  0  0  0  0  0  0
   -2.5976   -9.7517    0.0000 C   0  0  0  0  0  0  0  0  0  0  0  0
   -1.2986  -10.5017    0.0000 O   0  0  0  0  0  0  0  0  0  0  0  0
   -3.8966  -10.5017    0.0000 N   0  0  0  0  0  0  0  0  0  0  0  0
   -3.8962  -12.0025    0.0000 C   0  0  0  0  0  0  0  0  0  0  0  0
   -5.1952  -12.7525    0.0000 C   0  0  0  0  0  0  0  0  0  0  0  0
   -6.4947  -12.0017    0.0000 N   0  0  0  0  0  0  0  0  0  0  0  0
   -6.4952  -10.5008    0.0000 C   0  0  0  0  0  0  0  0  0  0  0  0
   -5.1962   -9.7508    0.0000 C   0  0  0  0  0  0  0  0  0  0  0  0
  1  2  2  0  0  0  0 
  2  3  1  0  0  0  0 
  3  4  2  0  0  0  0 
  4  5  1  0  0  0  0 
  5  6  2  0  0  0  0 
  1  6  1  0  0  0  0 
  5  7  1  0  0  0  0 
  7  8  2  0  0  0  0 
  8  9  1  0  0  0  0 
  9 10  2  0  0  0  0 
  4 10  1  0  0  0  0 
  3 11  1  0  0  0  0 
 11 12  2  0  0  0  0 
 11 13  2  0  0  0  0 
 11 14  1  0  0  0  0 
 14 15  1  0  0  0  0 
 15 16  2  0  0  0  0 
 16 17  1  0  0  0  0 
 17 18  2  0  0  0  0 
 18 19  1  0  0  0  0 
 19 20  2  0  0  0  0 
 15 20  1  0  0  0  0 
 18 21  1  0  0  0  0 
 21 22  2  0  0  0  0 
 21 23  1  0  0  0  0 
 23 24  1  0  0  0  0 
 24 25  1  0  0  0  0 
 25 26  2  0  0  0  0 
 26 27  1  0  0  0  0 
 27 28  1  0  0  0  0 
 23 28  1  0  0  0  0 
M  END
> <Rank>
7

> <Priority_score>
0.324

> <Reaction_type>
dehydration of N-C bond

> <Parent_ID>
1

> <Parent_InChI>
InChI=1S/C20H20N4O3S/c25-20(24-13-11-21-12-14-24)16-6-8-17(9-7-16)23-28(26,27)18-5-1-3-15-4-2-10-22-19(15)18/h1-10,21,23H,11-14H2

> <Parent_SMILES>
C1([H])=C([H])C(=C2C(=C1[H])C([H])=C([H])C([H])=N2)S(=O)(=O)N([H])C3=C([H])C([H])=C(C([H])=C3[H])C(=O)N4C([H])([H])C([H])([H])N([H])C([H])([H])C4([H])[H]

$$$$

  CDK     1104240448

 28 31  0  0  0  0  0  0  0  0999 V2000
   -2.6000    0.7500    0.0000 C   0  0  0  0  0  0  0  0  0  0  0  0
   -2.6000   -0.7500    0.0000 C   0  0  0  0  0  0  0  0  0  0  0  0
   -1.3000   -1.5000    0.0000 C   0  0  0  0  0  0  0  0  0  0  0  0
   -0.0000   -0.7500    0.0000 C   0  0  0  0  0  0  0  0  0  0  0  0
   -0.0000    0.7500    0.0000 C   0  0  0  0  0  0  0  0  0  0  0  0
   -1.3000    1.5000    0.0000 C   0  0  0  0  0  0  0  0  0  0  0  0
    1.3000    1.5000    0.0000 C   0  0  0  0  0  0  0  0  0  0  0  0
    2.6000    0.7500    0.0000 C   0  0  0  0  0  0  0  0  0  0  0  0
    2.6000   -0.7500    0.0000 C   0  0  0  0  0  0  0  0  0  0  0  0
    1.3000   -1.5000    0.0000 N   0  0  0  0  0  0  0  0  0  0  0  0
   -1.3000   -3.0000    0.0000 S   0  0  0  0  0  0  0  0  0  0  0  0
   -0.7870   -4.4095    0.0000 O   0  0  0  0  0  0  0  0  0  0  0  0
    0.1772   -2.7395    0.0000 O   0  0  0  0  0  0  0  0  0  0  0  0
   -2.5990   -3.7500    0.0000 N   0  0  0  0  0  0  0  0  0  0  0  0
   -2.5990   -5.2500    0.0000 C   0  0  0  0  0  0  0  0  0  0  0  0
   -1.2994   -6.0006    0.0000 C   0  0  0  0  0  0  0  0  0  0  0  0
   -1.2987   -7.5015    0.0000 C   0  0  0  0  0  0  0  0  0  0  0  0
   -2.5976   -8.2517    0.0000 C   0  0  0  0  0  0  0  0  0  0  0  0
   -3.8972   -7.5010    0.0000 C   0  0  0  0  0  0  0  0  0  0  0  0
   -3.8980   -6.0002    0.0000 C   0  0  0  0  0  0  0  0  0  0  0  0
   -2.5976   -9.7517    0.0000 C   0  0  0  0  0  0  0  0  0  0  0  0
   -1.2986  -10.5017    0.0000 O   0  0  0  0  0  0  0  0  0  0  0  0
   -3.8966  -10.5017    0.0000 N   0  0  0  0  0  0  0  0  0  0  0  0
   -3.8962  -12.0025    0.0000 C   0  0  0  0  0  0  0  0  0  0  0  0
   -5.1952  -12.7525    0.0000 C   0  0  0  0  0  0  0  0  0  0  0  0
   -6.4947  -12.0017    0.0000 N   0  0  0  0  0  0  0  0  0  0  0  0
   -6.4952  -10.5008    0.0000 C   0  0  0  0  0  0  0  0  0  0  0  0
   -5.1962   -9.7508    0.0000 C   0  0  0  0  0  0  0  0  0  0  0  0
  1  2  2  0  0  0  0 
  2  3  1  0  0  0  0 
  3  4  2  0  0  0  0 
  4  5  1  0  0  0  0 
  5  6  2  0  0  0  0 
  1  6  1  0  0  0  0 
  5  7  1  0  0  0  0 
  7  8  2  0  0  0  0 
  8  9  1  0  0  0  0 
  9 10  2  0  0  0  0 
  4 10  1  0  0  0  0 
  3 11  1  0  0  0  0 
 11 12  2  0  0  0  0 
 11 13  2  0  0  0  0 
 11 14  1  0  0  0  0 
 14 15  1  0  0  0  0 
 15 16  2  0  0  0  0 
 16 17  1  0  0  0  0 
 17 18  2  0  0  0  0 
 18 19  1  0  0  0  0 
 19 20  2  0  0  0  0 
 15 20  1  0  0  0  0 
 18 21  1  0  0  0  0 
 21 22  2  0  0  0  0 
 21 23  1  0  0  0  0 
 23 24  1  0  0  0  0 
 24 25  2  0  0  0  0 
 25 26  1  0  0  0  0 
 26 27  1  0  0  0  0 
 27 28  1  0  0  0  0 
 23 28  1  0  0  0  0 
M  END
> <Rank>
7

> <Priority_score>
0.324

> <Reaction_type>
alkyl dehydrogenation

> <Parent_ID>
1

> <Parent_InChI>
InChI=1S/C20H20N4O3S/c25-20(24-13-11-21-12-14-24)16-6-8-17(9-7-16)23-28(26,27)18-5-1-3-15-4-2-10-22-19(15)18/h1-10,21,23H,11-14H2

> <Parent_SMILES>
C1([H])=C([H])C(=C2C(=C1[H])C([H])=C([H])C([H])=N2)S(=O)(=O)N([H])C3=C([H])C([H])=C(C([H])=C3[H])C(=O)N4C([H])([H])C([H])([H])N([H])C([H])([H])C4([H])[H]

$$$$

  CDK     1104240448

 28 31  0  0  0  0  0  0  0  0999 V2000
   -2.6000    0.7500    0.0000 C   0  0  0  0  0  0  0  0  0  0  0  0
   -2.6000   -0.7500    0.0000 C   0  0  0  0  0  0  0  0  0  0  0  0
   -1.3000   -1.5000    0.0000 C   0  0  0  0  0  0  0  0  0  0  0  0
   -0.0000   -0.7500    0.0000 C   0  0  0  0  0  0  0  0  0  0  0  0
   -0.0000    0.7500    0.0000 C   0  0  0  0  0  0  0  0  0  0  0  0
   -1.3000    1.5000    0.0000 C   0  0  0  0  0  0  0  0  0  0  0  0
    1.3000    1.5000    0.0000 C   0  0  0  0  0  0  0  0  0  0  0  0
    2.6000    0.7500    0.0000 C   0  0  0  0  0  0  0  0  0  0  0  0
    2.6000   -0.7500    0.0000 C   0  0  0  0  0  0  0  0  0  0  0  0
    1.3000   -1.5000    0.0000 N   0  0  0  0  0  0  0  0  0  0  0  0
   -1.3000   -3.0000    0.0000 S   0  0  0  0  0  0  0  0  0  0  0  0
   -0.7870   -4.4095    0.0000 O   0  0  0  0  0  0  0  0  0  0  0  0
    0.1772   -2.7395    0.0000 O   0  0  0  0  0  0  0  0  0  0  0  0
   -2.5990   -3.7500    0.0000 N   0  0  0  0  0  0  0  0  0  0  0  0
   -2.5990   -5.2500    0.0000 C   0  0  0  0  0  0  0  0  0  0  0  0
   -1.2994   -6.0006    0.0000 C   0  0  0  0  0  0  0  0  0  0  0  0
   -1.2987   -7.5015    0.0000 C   0  0  0  0  0  0  0  0  0  0  0  0
   -2.5976   -8.2517    0.0000 C   0  0  0  0  0  0  0  0  0  0  0  0
   -3.8972   -7.5010    0.0000 C   0  0  0  0  0  0  0  0  0  0  0  0
   -3.8980   -6.0002    0.0000 C   0  0  0  0  0  0  0  0  0  0  0  0
   -2.5976   -9.7517    0.0000 C   0  0  0  0  0  0  0  0  0  0  0  0
   -1.2986  -10.5017    0.0000 O   0  0  0  0  0  0  0  0  0  0  0  0
   -3.8966  -10.5017    0.0000 N   0  0  0  0  0  0  0  0  0  0  0  0
   -3.8962  -12.0025    0.0000 C   0  0  0  0  0  0  0  0  0  0  0  0
   -5.1952  -12.7525    0.0000 C   0  0  0  0  0  0  0  0  0  0  0  0
   -6.4947  -12.0017    0.0000 N   0  0  0  0  0  0  0  0  0  0  0  0
   -6.4952  -10.5008    0.0000 C   0  0  0  0  0  0  0  0  0  0  0  0
   -5.1962   -9.7508    0.0000 C   0  0  0  0  0  0  0  0  0  0  0  0
  1  2  2  0  0  0  0 
  2  3  1  0  0  0  0 
  3  4  2  0  0  0  0 
  4  5  1  0  0  0  0 
  5  6  2  0  0  0  0 
  1  6  1  0  0  0  0 
  5  7  1  0  0  0  0 
  7  8  2  0  0  0  0 
  8  9  1  0  0  0  0 
  9 10  2  0  0  0  0 
  4 10  1  0  0  0  0 
  3 11  1  0  0  0  0 
 11 12  2  0  0  0  0 
 11 13  2  0  0  0  0 
 11 14  1  0  0  0  0 
 14 15  1  0  0  0  0 
 15 16  2  0  0  0  0 
 16 17  1  0  0  0  0 
 17 18  2  0  0  0  0 
 18 19  1  0  0  0  0 
 19 20  2  0  0  0  0 
 15 20  1  0  0  0  0 
 18 21  1  0  0  0  0 
 21 22  2  0  0  0  0 
 21 23  1  0  0  0  0 
 23 24  1  0  0  0  0 
 24 25  1  0  0  0  0 
 25 26  2  0  0  0  0 
 26 27  1  0  0  0  0 
 27 28  1  0  0  0  0 
 23 28  1  0  0  0  0 
M  CHG  1  26   1
M  END
> <Rank>
7

> <Priority_score>
0.324

> <Reaction_type>
dehydration of N-C bond

> <Parent_ID>
1

> <Parent_InChI>
InChI=1S/C20H20N4O3S/c25-20(24-13-11-21-12-14-24)16-6-8-17(9-7-16)23-28(26,27)18-5-1-3-15-4-2-10-22-19(15)18/h1-10,21,23H,11-14H2

> <Parent_SMILES>
C1([H])=C([H])C(=C2C(=C1[H])C([H])=C([H])C([H])=N2)S(=O)(=O)N([H])C3=C([H])C([H])=C(C([H])=C3[H])C(=O)N4C([H])([H])C([H])([H])N([H])C([H])([H])C4([H])[H]

$$$$

  CDK     1104240448

 28 32  0  0  0  0  0  0  0  0999 V2000
    2.5147   12.0197    0.0000 C   0  0  0  0  0  0  0  0  0  0  0  0
    2.5243   10.5198    0.0000 C   0  0  0  0  0  0  0  0  0  0  0  0
    3.8291    9.7781    0.0000 C   0  0  0  0  0  0  0  0  0  0  0  0
    5.1243   10.5364    0.0000 C   0  0  0  0  0  0  0  0  0  0  0  0
    5.1147   12.0363    0.0000 C   0  0  0  0  0  0  0  0  0  0  0  0
    3.8099   12.7780    0.0000 C   0  0  0  0  0  0  0  0  0  0  0  0
    6.4099   12.7946    0.0000 C   0  0  0  0  0  0  0  0  0  0  0  0
    7.7146   12.0529    0.0000 C   0  0  0  0  0  0  0  0  0  0  0  0
    7.7242   10.5530    0.0000 C   0  0  0  0  0  0  0  0  0  0  0  0
    6.4290    9.7947    0.0000 N   0  0  0  0  0  0  0  0  0  0  0  0
    3.8387    8.2781    0.0000 S   0  0  0  0  0  0  0  0  0  0  0  0
    4.3607    6.8719    0.0000 O   0  0  0  0  0  0  0  0  0  0  0  0
    5.3142    8.5480    0.0000 O   0  0  0  0  0  0  0  0  0  0  0  0
    2.5444    7.5198    0.0000 N   0  0  0  0  0  0  0  0  0  0  0  0
    2.5540    6.0198    0.0000 C   0  0  0  0  0  0  0  0  0  0  0  0
    3.8584    5.2775    0.0000 C   0  0  0  0  0  0  0  0  0  0  0  0
    3.8687    3.7767    0.0000 C   0  0  0  0  0  0  0  0  0  0  0  0
    2.5746    3.0183    0.0000 C   0  0  0  0  0  0  0  0  0  0  0  0
    1.2702    3.7606    0.0000 C   0  0  0  0  0  0  0  0  0  0  0  0
    1.2599    5.2614    0.0000 C   0  0  0  0  0  0  0  0  0  0  0  0
    2.5842    1.5183    0.0000 C   0  0  0  0  0  0  0  0  0  0  0  0
    3.8880    0.7766    0.0000 O   0  0  0  0  0  0  0  0  0  0  0  0
    1.2900    0.7600    0.0000 N   0  0  0  0  0  0  0  0  0  0  0  0
    1.3000   -0.7400    0.0000 C   0  0  0  0  0  0  0  0  0  0  0  0
    0.0000   -1.5000    0.0000 C   0  0  0  0  0  0  0  0  0  0  0  0
   -1.2700   -0.7500    0.0000 N   0  0  0  0  0  0  0  0  0  0  0  0
   -1.3100    0.7400    0.0000 C   0  0  0  0  0  0  0  0  0  0  0  0
   -0.0100    1.5000    0.0000 C   0  0  0  0  0  0  0  0  0  0  0  0
  1  2  2  0  0  0  0 
  2  3  1  0  0  0  0 
  3  4  2  0  0  0  0 
  4  5  1  0  0  0  0 
  5  6  2  0  0  0  0 
  1  6  1  0  0  0  0 
  5  7  1  0  0  0  0 
  7  8  2  0  0  0  0 
  8  9  1  0  0  0  0 
  9 10  2  0  0  0  0 
  4 10  1  0  0  0  0 
  3 11  1  0  0  0  0 
 11 12  2  0  0  0  0 
 11 13  2  0  0  0  0 
 11 14  1  0  0  0  0 
 14 15  1  0  0  0  0 
 15 16  2  0  0  0  0 
 16 17  1  0  0  0  0 
 17 18  2  0  0  0  0 
 18 19  1  0  0  0  0 
 19 20  2  0  0  0  0 
 15 20  1  0  0  0  0 
 18 21  1  0  0  0  0 
 21 22  2  0  0  0  0 
 21 23  1  0  0  0  0 
 23 24  1  0  0  0  0 
 24 25  1  0  0  0  0 
 25 26  1  0  0  0  0 
 26 27  1  0  0  0  0 
 27 28  1  0  0  0  0 
 26 28  1  0  0  0  0 
 23 28  1  0  0  0  0 
M  END
> <Rank>
7

> <Priority_score>
0.324

> <Reaction_type>
cyclization to 5-membered NCN ring

> <Parent_ID>
1

> <Parent_InChI>
InChI=1S/C20H20N4O3S/c25-20(24-13-11-21-12-14-24)16-6-8-17(9-7-16)23-28(26,27)18-5-1-3-15-4-2-10-22-19(15)18/h1-10,21,23H,11-14H2

> <Parent_SMILES>
C1([H])=C([H])C(=C2C(=C1[H])C([H])=C([H])C([H])=N2)S(=O)(=O)N([H])C3=C([H])C([H])=C(C([H])=C3[H])C(=O)N4C([H])([H])C([H])([H])N([H])C([H])([H])C4([H])[H]

$$$$
