
  CDK     1104240414

 28 32  0  0  0  0  0  0  0  0999 V2000
   -7.1596   -3.4432    0.0000 C   0  0  0  0  0  0  0  0  0  0  0  0
   -5.7419   -2.9507    0.0000 C   0  0  0  0  0  0  0  0  0  0  0  0
   -5.4601   -1.4774    0.0000 C   0  0  0  0  0  0  0  0  0  0  0  0
   -6.5961   -0.4966    0.0000 C   0  0  0  0  0  0  0  0  0  0  0  0
   -8.0138   -0.9891    0.0000 C   0  0  0  0  0  0  0  0  0  0  0  0
   -8.2956   -2.4624    0.0000 C   0  0  0  0  0  0  0  0  0  0  0  0
   -6.3144    0.9767    0.0000 C   0  0  1  0  0  0  0  0  0  0  0  0
   -7.4504    1.9575    0.0000 C   0  0  0  0  0  0  0  0  0  0  0  0
   -8.8681    1.4651    0.0000 C   0  0  0  0  0  0  0  0  0  0  0  0
  -10.0041    2.4459    0.0000 C   0  0  0  0  0  0  0  0  0  0  0  0
   -9.7224    3.9192    0.0000 C   0  0  0  0  0  0  0  0  0  0  0  0
   -8.3047    4.4117    0.0000 C   0  0  0  0  0  0  0  0  0  0  0  0
   -7.1687    3.4308    0.0000 C   0  0  0  0  0  0  0  0  0  0  0  0
   -5.7509    3.9233    0.0000 C   0  0  0  0  0  0  0  0  0  0  0  0
   -4.6149    2.9425    0.0000 C   0  0  0  0  0  0  0  0  0  0  0  0
   -4.8967    1.4692    0.0000 N   0  0  0  0  0  0  0  0  0  0  0  0
   -3.7618    0.4884    0.0000 C   0  0  0  0  0  0  0  0  0  0  0  0
   -4.0437   -0.9849    0.0000 O   0  0  0  0  0  0  0  0  0  0  0  0
   -2.3449    0.9808    0.0000 O   0  0  0  0  0  0  0  0  0  0  0  0
   -1.2100    0.0000    0.0000 C   0  0  1  0  0  0  0  0  0  0  0  0
   -1.5400   -1.3700    0.0000 C   0  0  0  0  0  0  0  0  0  0  0  0
   -0.1600   -0.8000    0.0000 N   0  0  0  0  0  0  0  0  0  0  0  0
   -0.3300    1.1000    0.0000 C   0  0  0  0  0  0  0  0  0  0  0  0
    0.1600    2.1800    0.0000 C   0  0  0  0  0  0  0  0  0  0  0  0
    0.1600    0.5500    0.0000 C   0  0  0  0  0  0  0  0  0  0  0  0
    1.5900   -0.1500    0.0000 C   0  0  0  0  0  0  0  0  0  0  0  0
    1.3400   -1.5100    0.0000 C   0  0  0  0  0  0  0  0  0  0  0  0
  -10.8573    4.9000    0.0000 O   0  0  0  0  0  0  0  0  0  0  0  0
  1  2  2  0  0  0  0 
  2  3  1  0  0  0  0 
  3  4  2  0  0  0  0 
  4  5  1  0  0  0  0 
  5  6  2  0  0  0  0 
  1  6  1  0  0  0  0 
  7  4  1  1  0  0  0 
  7  8  1  0  0  0  0 
  8  9  2  0  0  0  0 
  9 10  1  0  0  0  0 
 10 11  2  0  0  0  0 
 11 12  1  0  0  0  0 
 12 13  2  0  0  0  0 
  8 13  1  0  0  0  0 
 13 14  1  0  0  0  0 
 14 15  1  0  0  0  0 
 15 16  1  0  0  0  0 
  7 16  1  0  0  0  0 
 16 17  1  0  0  0  0 
 17 18  2  0  0  0  0 
 17 19  1  0  0  0  0 
 20 19  1  6  0  0  0 
 20 21  1  0  0  0  0 
 21 22  1  0  0  0  0 
 22 23  1  0  0  0  0 
 23 24  1  0  0  0  0 
 24 25  1  0  0  0  0 
 20 25  1  0  0  0  0 
 25 26  1  0  0  0  0 
 26 27  1  0  0  0  0 
 22 27  1  0  0  0  0 
 11 28  1  0  0  0  0 
M  END
> <Rank>
1

> <Priority_score>
1.6300000000000001

> <Reaction_type>
aromatic hydroxylation

> <Parent_ID>
1

> <Parent_InChI>
InChI=1S/C23H26N2O2/c26-23(27-21-16-24-13-10-18(21)11-14-24)25-15-12-17-6-4-5-9-20(17)22(25)19-7-2-1-3-8-19/h1-9,18,21-22H,10-16H2/t21-,22-/m0/s1

> <Parent_SMILES>
C1([H])=C([H])C([H])=C(C([H])=C1[H])[C@@]2([H])C3=C(C([H])=C([H])C([H])=C3[H])C([H])([H])C([H])([H])N2C(=O)O[C@@]4([H])C([H])([H])N5C([H])([H])C([H])([H])C4([H])C([H])([H])C5([H])[H]

$$$$

  CDK     1104240414

 28 32  0  0  0  0  0  0  0  0999 V2000
   -7.1596   -3.4432    0.0000 C   0  0  0  0  0  0  0  0  0  0  0  0
   -5.7419   -2.9507    0.0000 C   0  0  0  0  0  0  0  0  0  0  0  0
   -5.4601   -1.4774    0.0000 C   0  0  0  0  0  0  0  0  0  0  0  0
   -6.5961   -0.4966    0.0000 C   0  0  0  0  0  0  0  0  0  0  0  0
   -8.0138   -0.9891    0.0000 C   0  0  0  0  0  0  0  0  0  0  0  0
   -8.2956   -2.4624    0.0000 C   0  0  0  0  0  0  0  0  0  0  0  0
   -6.3144    0.9767    0.0000 C   0  0  1  0  0  0  0  0  0  0  0  0
   -7.4504    1.9575    0.0000 C   0  0  0  0  0  0  0  0  0  0  0  0
   -7.1687    3.4308    0.0000 C   0  0  0  0  0  0  0  0  0  0  0  0
   -8.3047    4.4117    0.0000 C   0  0  0  0  0  0  0  0  0  0  0  0
   -9.7224    3.9192    0.0000 C   0  0  0  0  0  0  0  0  0  0  0  0
  -10.0041    2.4459    0.0000 C   0  0  0  0  0  0  0  0  0  0  0  0
   -8.8681    1.4651    0.0000 C   0  0  0  0  0  0  0  0  0  0  0  0
   -5.7509    3.9233    0.0000 C   0  0  0  0  0  0  0  0  0  0  0  0
   -4.6149    2.9425    0.0000 C   0  0  0  0  0  0  0  0  0  0  0  0
   -4.8967    1.4692    0.0000 N   0  0  0  0  0  0  0  0  0  0  0  0
   -3.7618    0.4884    0.0000 C   0  0  0  0  0  0  0  0  0  0  0  0
   -4.0437   -0.9849    0.0000 O   0  0  0  0  0  0  0  0  0  0  0  0
   -2.3449    0.9808    0.0000 O   0  0  0  0  0  0  0  0  0  0  0  0
   -1.2100    0.0000    0.0000 C   0  0  1  0  0  0  0  0  0  0  0  0
   -1.5400   -1.3700    0.0000 C   0  0  0  0  0  0  0  0  0  0  0  0
   -0.1600   -0.8000    0.0000 N   0  0  0  0  0  0  0  0  0  0  0  0
   -0.3300    1.1000    0.0000 C   0  0  0  0  0  0  0  0  0  0  0  0
    0.1600    2.1800    0.0000 C   0  0  0  0  0  0  0  0  0  0  0  0
    0.1600    0.5500    0.0000 C   0  0  0  0  0  0  0  0  0  0  0  0
    1.5900   -0.1500    0.0000 C   0  0  0  0  0  0  0  0  0  0  0  0
    1.3400   -1.5100    0.0000 C   0  0  0  0  0  0  0  0  0  0  0  0
   -5.4692    5.3966    0.0000 O   0  0  0  0  0  0  0  0  0  0  0  0
  1  2  2  0  0  0  0 
  2  3  1  0  0  0  0 
  3  4  2  0  0  0  0 
  4  5  1  0  0  0  0 
  5  6  2  0  0  0  0 
  1  6  1  0  0  0  0 
  7  4  1  1  0  0  0 
  7  8  1  0  0  0  0 
  8  9  2  0  0  0  0 
  9 10  1  0  0  0  0 
 10 11  2  0  0  0  0 
 11 12  1  0  0  0  0 
 12 13  2  0  0  0  0 
  8 13  1  0  0  0  0 
  9 14  1  0  0  0  0 
 14 15  1  0  0  0  0 
 15 16  1  0  0  0  0 
  7 16  1  0  0  0  0 
 16 17  1  0  0  0  0 
 17 18  2  0  0  0  0 
 17 19  1  0  0  0  0 
 20 19  1  6  0  0  0 
 20 21  1  0  0  0  0 
 21 22  1  0  0  0  0 
 22 23  1  0  0  0  0 
 23 24  1  0  0  0  0 
 24 25  1  0  0  0  0 
 20 25  1  0  0  0  0 
 25 26  1  0  0  0  0 
 26 27  1  0  0  0  0 
 22 27  1  0  0  0  0 
 14 28  1  0  0  0  0 
M  END
> <Rank>
2

> <Priority_score>
1.36

> <Reaction_type>
aliphatic hydroxylation

> <Parent_ID>
1

> <Parent_InChI>
InChI=1S/C23H26N2O2/c26-23(27-21-16-24-13-10-18(21)11-14-24)25-15-12-17-6-4-5-9-20(17)22(25)19-7-2-1-3-8-19/h1-9,18,21-22H,10-16H2/t21-,22-/m0/s1

> <Parent_SMILES>
C1([H])=C([H])C([H])=C(C([H])=C1[H])[C@@]2([H])C3=C(C([H])=C([H])C([H])=C3[H])C([H])([H])C([H])([H])N2C(=O)O[C@@]4([H])C([H])([H])N5C([H])([H])C([H])([H])C4([H])C([H])([H])C5([H])[H]

$$$$

  CDK     1104240414

 28 31  0  0  0  0  0  0  0  0999 V2000
    1.3000   -6.0000    0.0000 C   0  0  0  0  0  0  0  0  0  0  0  0
    2.6000   -5.2500    0.0000 C   0  0  0  0  0  0  0  0  0  0  0  0
    2.6000   -3.7500    0.0000 C   0  0  0  0  0  0  0  0  0  0  0  0
    1.3000   -3.0000    0.0000 C   0  0  0  0  0  0  0  0  0  0  0  0
   -0.0000   -3.7500    0.0000 C   0  0  0  0  0  0  0  0  0  0  0  0
   -0.0000   -5.2500    0.0000 C   0  0  0  0  0  0  0  0  0  0  0  0
    1.3000   -1.5000    0.0000 C   0  0  1  0  0  0  0  0  0  0  0  0
    0.0000   -0.7500    0.0000 C   0  0  0  0  0  0  0  0  0  0  0  0
    0.0000    0.7500    0.0000 C   0  0  0  0  0  0  0  0  0  0  0  0
   -1.3000    1.5000    0.0000 C   0  0  0  0  0  0  0  0  0  0  0  0
   -2.6000    0.7500    0.0000 C   0  0  0  0  0  0  0  0  0  0  0  0
   -2.6000   -0.7500    0.0000 C   0  0  0  0  0  0  0  0  0  0  0  0
   -1.3000   -1.5000    0.0000 C   0  0  0  0  0  0  0  0  0  0  0  0
    1.3000    1.5000    0.0000 C   0  0  0  0  0  0  0  0  0  0  0  0
    2.6000    0.7500    0.0000 C   0  0  0  0  0  0  0  0  0  0  0  0
    2.6000   -0.7500    0.0000 N   0  0  0  0  0  0  0  0  0  0  0  0
    3.8989   -1.5002    0.0000 C   0  0  0  0  0  0  0  0  0  0  0  0
    3.8987   -3.0002    0.0000 O   0  0  0  0  0  0  0  0  0  0  0  0
    5.1981   -0.7504    0.0000 O   0  0  0  0  0  0  0  0  0  0  0  0
    6.4970   -1.5006    0.0000 C   0  0  1  0  0  0  0  0  0  0  0  0
    6.4970   -3.0006    0.0000 C   0  0  0  0  0  0  0  0  0  0  0  0
    7.7970   -3.7506    0.0000 N   0  0  0  0  0  0  0  0  0  0  0  0
    9.0970   -3.0006    0.0000 C   0  0  0  0  0  0  0  0  0  0  0  0
    9.0970   -1.5006    0.0000 C   0  0  0  0  0  0  0  0  0  0  0  0
    7.7970   -0.7506    0.0000 C   0  0  0  0  0  0  0  0  0  0  0  0
    7.7970    0.7494    0.0000 C   0  0  0  0  0  0  0  0  0  0  0  0
    9.0960    1.4994    0.0000 C   0  0  0  0  0  0  0  0  0  0  0  0
   10.3951    0.7494    0.0000 O   0  0  0  0  0  0  0  0  0  0  0  0
  1  2  2  0  0  0  0 
  2  3  1  0  0  0  0 
  3  4  2  0  0  0  0 
  4  5  1  0  0  0  0 
  5  6  2  0  0  0  0 
  1  6  1  0  0  0  0 
  7  4  1  1  0  0  0 
  7  8  1  0  0  0  0 
  8  9  2  0  0  0  0 
  9 10  1  0  0  0  0 
 10 11  2  0  0  0  0 
 11 12  1  0  0  0  0 
 12 13  2  0  0  0  0 
  8 13  1  0  0  0  0 
  9 14  1  0  0  0  0 
 14 15  1  0  0  0  0 
 15 16  1  0  0  0  0 
  7 16  1  0  0  0  0 
 16 17  1  0  0  0  0 
 17 18  2  0  0  0  0 
 17 19  1  0  0  0  0 
 20 19  1  6  0  0  0 
 20 21  1  0  0  0  0 
 21 22  1  0  0  0  0 
 22 23  1  0  0  0  0 
 23 24  1  0  0  0  0 
 24 25  1  0  0  0  0 
 20 25  1  0  0  0  0 
 25 26  1  0  0  0  0 
 26 27  1  0  0  0  0 
 27 28  2  0  0  0  0 
M  END
> <Rank>
3

> <Priority_score>
1.26

> <Reaction_type>
N-dealkylation

> <Parent_ID>
1

> <Parent_InChI>
InChI=1S/C23H26N2O2/c26-23(27-21-16-24-13-10-18(21)11-14-24)25-15-12-17-6-4-5-9-20(17)22(25)19-7-2-1-3-8-19/h1-9,18,21-22H,10-16H2/t21-,22-/m0/s1

> <Parent_SMILES>
C1([H])=C([H])C([H])=C(C([H])=C1[H])[C@@]2([H])C3=C(C([H])=C([H])C([H])=C3[H])C([H])([H])C([H])([H])N2C(=O)O[C@@]4([H])C([H])([H])N5C([H])([H])C([H])([H])C4([H])C([H])([H])C5([H])[H]

$$$$

  CDK     1104240414

 28 32  0  0  0  0  0  0  0  0999 V2000
   -7.1596   -3.4432    0.0000 C   0  0  0  0  0  0  0  0  0  0  0  0
   -5.7419   -2.9507    0.0000 C   0  0  0  0  0  0  0  0  0  0  0  0
   -5.4601   -1.4774    0.0000 C   0  0  0  0  0  0  0  0  0  0  0  0
   -6.5961   -0.4966    0.0000 C   0  0  0  0  0  0  0  0  0  0  0  0
   -8.0138   -0.9891    0.0000 C   0  0  0  0  0  0  0  0  0  0  0  0
   -8.2956   -2.4624    0.0000 C   0  0  0  0  0  0  0  0  0  0  0  0
   -6.3144    0.9767    0.0000 C   0  0  1  0  0  0  0  0  0  0  0  0
   -7.4504    1.9575    0.0000 C   0  0  0  0  0  0  0  0  0  0  0  0
   -7.1687    3.4308    0.0000 C   0  0  0  0  0  0  0  0  0  0  0  0
   -8.3047    4.4117    0.0000 C   0  0  0  0  0  0  0  0  0  0  0  0
   -9.7224    3.9192    0.0000 C   0  0  0  0  0  0  0  0  0  0  0  0
  -10.0041    2.4459    0.0000 C   0  0  0  0  0  0  0  0  0  0  0  0
   -8.8681    1.4651    0.0000 C   0  0  0  0  0  0  0  0  0  0  0  0
   -5.7509    3.9233    0.0000 C   0  0  0  0  0  0  0  0  0  0  0  0
   -4.6149    2.9425    0.0000 C   0  0  0  0  0  0  0  0  0  0  0  0
   -4.8967    1.4692    0.0000 N   0  0  0  0  0  0  0  0  0  0  0  0
   -3.7618    0.4884    0.0000 C   0  0  0  0  0  0  0  0  0  0  0  0
   -4.0437   -0.9849    0.0000 O   0  0  0  0  0  0  0  0  0  0  0  0
   -2.3449    0.9808    0.0000 O   0  0  0  0  0  0  0  0  0  0  0  0
   -1.2100    0.0000    0.0000 C   0  0  1  0  0  0  0  0  0  0  0  0
   -1.5400   -1.3700    0.0000 C   0  0  0  0  0  0  0  0  0  0  0  0
   -0.1600   -0.8000    0.0000 N   0  0  0  0  0  0  0  0  0  0  0  0
   -0.3300    1.1000    0.0000 C   0  0  0  0  0  0  0  0  0  0  0  0
    0.1600    2.1800    0.0000 C   0  0  0  0  0  0  0  0  0  0  0  0
    0.1600    0.5500    0.0000 C   0  0  0  0  0  0  0  0  0  0  0  0
    1.5900   -0.1500    0.0000 C   0  0  0  0  0  0  0  0  0  0  0  0
    1.3400   -1.5100    0.0000 C   0  0  0  0  0  0  0  0  0  0  0  0
   -0.1978   -2.2995    0.0000 O   0  0  0  0  0  0  0  0  0  0  0  0
  1  2  2  0  0  0  0 
  2  3  1  0  0  0  0 
  3  4  2  0  0  0  0 
  4  5  1  0  0  0  0 
  5  6  2  0  0  0  0 
  1  6  1  0  0  0  0 
  7  4  1  1  0  0  0 
  7  8  1  0  0  0  0 
  8  9  2  0  0  0  0 
  9 10  1  0  0  0  0 
 10 11  2  0  0  0  0 
 11 12  1  0  0  0  0 
 12 13  2  0  0  0  0 
  8 13  1  0  0  0  0 
  9 14  1  0  0  0  0 
 14 15  1  0  0  0  0 
 15 16  1  0  0  0  0 
  7 16  1  0  0  0  0 
 16 17  1  0  0  0  0 
 17 18  2  0  0  0  0 
 17 19  1  0  0  0  0 
 20 19  1  6  0  0  0 
 20 21  1  0  0  0  0 
 21 22  1  0  0  0  0 
 22 23  1  0  0  0  0 
 23 24  1  0  0  0  0 
 24 25  1  0  0  0  0 
 20 25  1  0  0  0  0 
 25 26  1  0  0  0  0 
 26 27  1  0  0  0  0 
 22 27  1  0  0  0  0 
 22 28  1  0  0  0  0 
M  CHG  1  22   1
M  CHG  1  28  -1
M  END
> <Rank>
3

> <Priority_score>
1.26

> <Reaction_type>
N-oxidation

> <Parent_ID>
1

> <Parent_InChI>
InChI=1S/C23H26N2O2/c26-23(27-21-16-24-13-10-18(21)11-14-24)25-15-12-17-6-4-5-9-20(17)22(25)19-7-2-1-3-8-19/h1-9,18,21-22H,10-16H2/t21-,22-/m0/s1

> <Parent_SMILES>
C1([H])=C([H])C([H])=C(C([H])=C1[H])[C@@]2([H])C3=C(C([H])=C([H])C([H])=C3[H])C([H])([H])C([H])([H])N2C(=O)O[C@@]4([H])C([H])([H])N5C([H])([H])C([H])([H])C4([H])C([H])([H])C5([H])[H]

$$$$

  CDK     1104240414

 28 32  0  0  0  0  0  0  0  0999 V2000
   -7.1596   -3.4432    0.0000 C   0  0  0  0  0  0  0  0  0  0  0  0
   -5.7419   -2.9507    0.0000 C   0  0  0  0  0  0  0  0  0  0  0  0
   -5.4601   -1.4774    0.0000 C   0  0  0  0  0  0  0  0  0  0  0  0
   -6.5961   -0.4966    0.0000 C   0  0  0  0  0  0  0  0  0  0  0  0
   -8.0138   -0.9891    0.0000 C   0  0  0  0  0  0  0  0  0  0  0  0
   -8.2956   -2.4624    0.0000 C   0  0  0  0  0  0  0  0  0  0  0  0
   -6.3144    0.9767    0.0000 C   0  0  1  0  0  0  0  0  0  0  0  0
   -7.4504    1.9575    0.0000 C   0  0  0  0  0  0  0  0  0  0  0  0
   -7.1687    3.4308    0.0000 C   0  0  0  0  0  0  0  0  0  0  0  0
   -8.3047    4.4117    0.0000 C   0  0  0  0  0  0  0  0  0  0  0  0
   -9.7224    3.9192    0.0000 C   0  0  0  0  0  0  0  0  0  0  0  0
  -10.0041    2.4459    0.0000 C   0  0  0  0  0  0  0  0  0  0  0  0
   -8.8681    1.4651    0.0000 C   0  0  0  0  0  0  0  0  0  0  0  0
   -5.7509    3.9233    0.0000 C   0  0  0  0  0  0  0  0  0  0  0  0
   -4.6149    2.9425    0.0000 C   0  0  0  0  0  0  0  0  0  0  0  0
   -4.8967    1.4692    0.0000 N   0  0  0  0  0  0  0  0  0  0  0  0
   -3.7618    0.4884    0.0000 C   0  0  0  0  0  0  0  0  0  0  0  0
   -4.0437   -0.9849    0.0000 O   0  0  0  0  0  0  0  0  0  0  0  0
   -2.3449    0.9808    0.0000 O   0  0  0  0  0  0  0  0  0  0  0  0
   -1.2100    0.0000    0.0000 C   0  0  1  0  0  0  0  0  0  0  0  0
   -1.5400   -1.3700    0.0000 C   0  0  0  0  0  0  0  0  0  0  0  0
   -0.1600   -0.8000    0.0000 N   0  0  0  0  0  0  0  0  0  0  0  0
   -0.3300    1.1000    0.0000 C   0  0  0  0  0  0  0  0  0  0  0  0
    0.1600    2.1800    0.0000 C   0  0  0  0  0  0  0  0  0  0  0  0
    0.1600    0.5500    0.0000 C   0  0  0  0  0  0  0  0  0  0  0  0
    1.5900   -0.1500    0.0000 C   0  0  0  0  0  0  0  0  0  0  0  0
    1.3400   -1.5100    0.0000 C   0  0  0  0  0  0  0  0  0  0  0  0
    2.0239   -2.8450    0.0000 O   0  0  0  0  0  0  0  0  0  0  0  0
  1  2  2  0  0  0  0 
  2  3  1  0  0  0  0 
  3  4  2  0  0  0  0 
  4  5  1  0  0  0  0 
  5  6  2  0  0  0  0 
  1  6  1  0  0  0  0 
  7  4  1  1  0  0  0 
  7  8  1  0  0  0  0 
  8  9  2  0  0  0  0 
  9 10  1  0  0  0  0 
 10 11  2  0  0  0  0 
 11 12  1  0  0  0  0 
 12 13  2  0  0  0  0 
  8 13  1  0  0  0  0 
  9 14  1  0  0  0  0 
 14 15  1  0  0  0  0 
 15 16  1  0  0  0  0 
  7 16  1  0  0  0  0 
 16 17  1  0  0  0  0 
 17 18  2  0  0  0  0 
 17 19  1  0  0  0  0 
 20 19  1  6  0  0  0 
 20 21  1  0  0  0  0 
 21 22  1  0  0  0  0 
 22 23  1  0  0  0  0 
 23 24  1  0  0  0  0 
 24 25  1  0  0  0  0 
 20 25  1  0  0  0  0 
 25 26  1  0  0  0  0 
 26 27  1  0  0  0  0 
 22 27  1  0  0  0  0 
 27 28  1  0  0  0  0 
M  END
> <Rank>
3

> <Priority_score>
1.26

> <Reaction_type>
aliphatic hydroxylation

> <Parent_ID>
1

> <Parent_InChI>
InChI=1S/C23H26N2O2/c26-23(27-21-16-24-13-10-18(21)11-14-24)25-15-12-17-6-4-5-9-20(17)22(25)19-7-2-1-3-8-19/h1-9,18,21-22H,10-16H2/t21-,22-/m0/s1

> <Parent_SMILES>
C1([H])=C([H])C([H])=C(C([H])=C1[H])[C@@]2([H])C3=C(C([H])=C([H])C([H])=C3[H])C([H])([H])C([H])([H])N2C(=O)O[C@@]4([H])C([H])([H])N5C([H])([H])C([H])([H])C4([H])C([H])([H])C5([H])[H]

$$$$

  CDK     1104240414

 28 32  0  0  0  0  0  0  0  0999 V2000
   -9.7224    3.9192    0.0000 C   0  0  0  0  0  0  0  0  0  0  0  0
   -8.3047    4.4117    0.0000 C   0  0  0  0  0  0  0  0  0  0  0  0
   -7.1687    3.4308    0.0000 C   0  0  0  0  0  0  0  0  0  0  0  0
   -7.4504    1.9575    0.0000 C   0  0  0  0  0  0  0  0  0  0  0  0
   -8.8681    1.4651    0.0000 C   0  0  0  0  0  0  0  0  0  0  0  0
  -10.0041    2.4459    0.0000 C   0  0  0  0  0  0  0  0  0  0  0  0
   -6.3144    0.9767    0.0000 C   0  0  2  0  0  0  0  0  0  0  0  0
   -6.5961   -0.4966    0.0000 C   0  0  0  0  0  0  0  0  0  0  0  0
   -5.4563   -1.4716    0.0000 C   0  0  0  0  0  0  0  0  0  0  0  0
   -5.7119   -2.9242    0.0000 C   0  0  0  0  0  0  0  0  0  0  0  0
   -7.1593   -3.4626    0.0000 C   0  0  0  0  0  0  0  0  0  0  0  0
   -8.2992   -2.4876    0.0000 C   0  0  0  0  0  0  0  0  0  0  0  0
   -7.9916   -0.9742    0.0000 C   0  0  0  0  0  0  0  0  0  0  0  0
   -7.4216   -4.9395    0.0000 O   0  0  0  0  0  0  0  0  0  0  0  0
   -4.8967    1.4692    0.0000 N   0  0  0  0  0  0  0  0  0  0  0  0
   -4.6149    2.9425    0.0000 C   0  0  0  0  0  0  0  0  0  0  0  0
   -5.7509    3.9233    0.0000 C   0  0  0  0  0  0  0  0  0  0  0  0
   -3.7618    0.4884    0.0000 C   0  0  0  0  0  0  0  0  0  0  0  0
   -4.0437   -0.9849    0.0000 O   0  0  0  0  0  0  0  0  0  0  0  0
   -2.3449    0.9808    0.0000 O   0  0  0  0  0  0  0  0  0  0  0  0
   -1.2100    0.0000    0.0000 C   0  0  1  0  0  0  0  0  0  0  0  0
   -1.5400   -1.3700    0.0000 C   0  0  0  0  0  0  0  0  0  0  0  0
   -0.1600   -0.8000    0.0000 N   0  0  0  0  0  0  0  0  0  0  0  0
   -0.3300    1.1000    0.0000 C   0  0  0  0  0  0  0  0  0  0  0  0
    0.1600    2.1800    0.0000 C   0  0  0  0  0  0  0  0  0  0  0  0
    0.1600    0.5500    0.0000 C   0  0  0  0  0  0  0  0  0  0  0  0
    1.5900   -0.1500    0.0000 C   0  0  0  0  0  0  0  0  0  0  0  0
    1.3400   -1.5100    0.0000 C   0  0  0  0  0  0  0  0  0  0  0  0
  1  2  2  0  0  0  0 
  2  3  1  0  0  0  0 
  3  4  2  0  0  0  0 
  4  5  1  0  0  0  0 
  5  6  2  0  0  0  0 
  1  6  1  0  0  0  0 
  4  7  1  0  0  0  0 
  7  8  1  1  0  0  0 
  8  9  2  0  0  0  0 
  9 10  1  0  0  0  0 
 10 11  2  0  0  0  0 
 11 12  1  0  0  0  0 
 12 13  2  0  0  0  0 
  8 13  1  0  0  0  0 
 11 14  1  0  0  0  0 
  7 15  1  0  0  0  0 
 15 16  1  0  0  0  0 
 16 17  1  0  0  0  0 
  3 17  1  0  0  0  0 
 15 18  1  0  0  0  0 
 18 19  2  0  0  0  0 
 18 20  1  0  0  0  0 
 21 20  1  6  0  0  0 
 21 22  1  0  0  0  0 
 22 23  1  0  0  0  0 
 23 24  1  0  0  0  0 
 24 25  1  0  0  0  0 
 25 26  1  0  0  0  0 
 21 26  1  0  0  0  0 
 26 27  1  0  0  0  0 
 27 28  1  0  0  0  0 
 23 28  1  0  0  0  0 
M  END
> <Rank>
6

> <Priority_score>
1.1300000000000001

> <Reaction_type>
aromatic hydroxylation

> <Parent_ID>
1

> <Parent_InChI>
InChI=1S/C23H26N2O2/c26-23(27-21-16-24-13-10-18(21)11-14-24)25-15-12-17-6-4-5-9-20(17)22(25)19-7-2-1-3-8-19/h1-9,18,21-22H,10-16H2/t21-,22-/m0/s1

> <Parent_SMILES>
C1([H])=C([H])C([H])=C(C([H])=C1[H])[C@@]2([H])C3=C(C([H])=C([H])C([H])=C3[H])C([H])([H])C([H])([H])N2C(=O)O[C@@]4([H])C([H])([H])N5C([H])([H])C([H])([H])C4([H])C([H])([H])C5([H])[H]

$$$$

  CDK     1104240414

 27 31  0  0  0  0  0  0  0  0999 V2000
   -7.1596   -3.4432    0.0000 C   0  0  0  0  0  0  0  0  0  0  0  0
   -5.7419   -2.9507    0.0000 C   0  0  0  0  0  0  0  0  0  0  0  0
   -5.4601   -1.4774    0.0000 C   0  0  0  0  0  0  0  0  0  0  0  0
   -6.5961   -0.4966    0.0000 C   0  0  0  0  0  0  0  0  0  0  0  0
   -8.0138   -0.9891    0.0000 C   0  0  0  0  0  0  0  0  0  0  0  0
   -8.2956   -2.4624    0.0000 C   0  0  0  0  0  0  0  0  0  0  0  0
   -6.3144    0.9767    0.0000 C   0  0  1  0  0  0  0  0  0  0  0  0
   -7.4504    1.9575    0.0000 C   0  0  0  0  0  0  0  0  0  0  0  0
   -7.1687    3.4308    0.0000 C   0  0  0  0  0  0  0  0  0  0  0  0
   -8.3047    4.4117    0.0000 C   0  0  0  0  0  0  0  0  0  0  0  0
   -9.7224    3.9192    0.0000 C   0  0  0  0  0  0  0  0  0  0  0  0
  -10.0041    2.4459    0.0000 C   0  0  0  0  0  0  0  0  0  0  0  0
   -8.8681    1.4651    0.0000 C   0  0  0  0  0  0  0  0  0  0  0  0
   -5.7509    3.9233    0.0000 C   0  0  0  0  0  0  0  0  0  0  0  0
   -4.6149    2.9425    0.0000 C   0  0  0  0  0  0  0  0  0  0  0  0
   -4.8967    1.4692    0.0000 N   0  0  0  0  0  0  0  0  0  0  0  0
   -3.7618    0.4884    0.0000 C   0  0  0  0  0  0  0  0  0  0  0  0
   -4.0437   -0.9849    0.0000 O   0  0  0  0  0  0  0  0  0  0  0  0
   -2.3449    0.9808    0.0000 O   0  0  0  0  0  0  0  0  0  0  0  0
   -1.2100    0.0000    0.0000 C   0  0  1  0  0  0  0  0  0  0  0  0
   -1.5400   -1.3700    0.0000 C   0  0  0  0  0  0  0  0  0  0  0  0
   -0.1600   -0.8000    0.0000 N   0  0  0  0  0  0  0  0  0  0  0  0
   -0.3300    1.1000    0.0000 C   0  0  0  0  0  0  0  0  0  0  0  0
    0.1600    2.1800    0.0000 C   0  0  0  0  0  0  0  0  0  0  0  0
    0.1600    0.5500    0.0000 C   0  0  0  0  0  0  0  0  0  0  0  0
    1.5900   -0.1500    0.0000 C   0  0  0  0  0  0  0  0  0  0  0  0
    1.3400   -1.5100    0.0000 C   0  0  0  0  0  0  0  0  0  0  0  0
  1  2  2  0  0  0  0 
  2  3  1  0  0  0  0 
  3  4  2  0  0  0  0 
  4  5  1  0  0  0  0 
  5  6  2  0  0  0  0 
  1  6  1  0  0  0  0 
  7  4  1  1  0  0  0 
  7  8  1  0  0  0  0 
  8  9  2  0  0  0  0 
  9 10  1  0  0  0  0 
 10 11  2  0  0  0  0 
 11 12  1  0  0  0  0 
 12 13  2  0  0  0  0 
  8 13  1  0  0  0  0 
  9 14  1  0  0  0  0 
 14 15  2  0  0  0  0 
 15 16  1  0  0  0  0 
  7 16  1  0  0  0  0 
 16 17  1  0  0  0  0 
 17 18  2  0  0  0  0 
 17 19  1  0  0  0  0 
 20 19  1  6  0  0  0 
 20 21  1  0  0  0  0 
 21 22  1  0  0  0  0 
 22 23  1  0  0  0  0 
 23 24  1  0  0  0  0 
 24 25  1  0  0  0  0 
 20 25  1  0  0  0  0 
 25 26  1  0  0  0  0 
 26 27  1  0  0  0  0 
 22 27  1  0  0  0  0 
M  END
> <Rank>
7

> <Priority_score>
0.272

> <Reaction_type>
alkyl dehydrogenation

> <Parent_ID>
1

> <Parent_InChI>
InChI=1S/C23H26N2O2/c26-23(27-21-16-24-13-10-18(21)11-14-24)25-15-12-17-6-4-5-9-20(17)22(25)19-7-2-1-3-8-19/h1-9,18,21-22H,10-16H2/t21-,22-/m0/s1

> <Parent_SMILES>
C1([H])=C([H])C([H])=C(C([H])=C1[H])[C@@]2([H])C3=C(C([H])=C([H])C([H])=C3[H])C([H])([H])C([H])([H])N2C(=O)O[C@@]4([H])C([H])([H])N5C([H])([H])C([H])([H])C4([H])C([H])([H])C5([H])[H]

$$$$

  CDK     1104240414

 27 31  0  0  0  0  0  0  0  0999 V2000
   -7.1596   -3.4432    0.0000 C   0  0  0  0  0  0  0  0  0  0  0  0
   -5.7419   -2.9507    0.0000 C   0  0  0  0  0  0  0  0  0  0  0  0
   -5.4601   -1.4774    0.0000 C   0  0  0  0  0  0  0  0  0  0  0  0
   -6.5961   -0.4966    0.0000 C   0  0  0  0  0  0  0  0  0  0  0  0
   -8.0138   -0.9891    0.0000 C   0  0  0  0  0  0  0  0  0  0  0  0
   -8.2956   -2.4624    0.0000 C   0  0  0  0  0  0  0  0  0  0  0  0
   -6.3144    0.9767    0.0000 C   0  0  1  0  0  0  0  0  0  0  0  0
   -7.4504    1.9575    0.0000 C   0  0  0  0  0  0  0  0  0  0  0  0
   -7.1687    3.4308    0.0000 C   0  0  0  0  0  0  0  0  0  0  0  0
   -8.3047    4.4117    0.0000 C   0  0  0  0  0  0  0  0  0  0  0  0
   -9.7224    3.9192    0.0000 C   0  0  0  0  0  0  0  0  0  0  0  0
  -10.0041    2.4459    0.0000 C   0  0  0  0  0  0  0  0  0  0  0  0
   -8.8681    1.4651    0.0000 C   0  0  0  0  0  0  0  0  0  0  0  0
   -5.7509    3.9233    0.0000 C   0  0  0  0  0  0  0  0  0  0  0  0
   -4.6149    2.9425    0.0000 C   0  0  0  0  0  0  0  0  0  0  0  0
   -4.8967    1.4692    0.0000 N   0  0  0  0  0  0  0  0  0  0  0  0
   -3.7618    0.4884    0.0000 C   0  0  0  0  0  0  0  0  0  0  0  0
   -4.0437   -0.9849    0.0000 O   0  0  0  0  0  0  0  0  0  0  0  0
   -2.3449    0.9808    0.0000 O   0  0  0  0  0  0  0  0  0  0  0  0
   -1.2100    0.0000    0.0000 C   0  0  1  0  0  0  0  0  0  0  0  0
   -1.5400   -1.3700    0.0000 C   0  0  0  0  0  0  0  0  0  0  0  0
   -0.1600   -0.8000    0.0000 N   0  0  0  0  0  0  0  0  0  0  0  0
   -0.3300    1.1000    0.0000 C   0  0  0  0  0  0  0  0  0  0  0  0
    0.1600    2.1800    0.0000 C   0  0  0  0  0  0  0  0  0  0  0  0
    0.1600    0.5500    0.0000 C   0  0  0  0  0  0  0  0  0  0  0  0
    1.5900   -0.1500    0.0000 C   0  0  0  0  0  0  0  0  0  0  0  0
    1.3400   -1.5100    0.0000 C   0  0  0  0  0  0  0  0  0  0  0  0
  1  2  2  0  0  0  0 
  2  3  1  0  0  0  0 
  3  4  2  0  0  0  0 
  4  5  1  0  0  0  0 
  5  6  2  0  0  0  0 
  1  6  1  0  0  0  0 
  7  4  1  1  0  0  0 
  7  8  1  0  0  0  0 
  8  9  2  0  0  0  0 
  9 10  1  0  0  0  0 
 10 11  2  0  0  0  0 
 11 12  1  0  0  0  0 
 12 13  2  0  0  0  0 
  8 13  1  0  0  0  0 
  9 14  1  0  0  0  0 
 14 15  1  0  0  0  0 
 15 16  1  0  0  0  0 
  7 16  1  0  0  0  0 
 16 17  1  0  0  0  0 
 17 18  2  0  0  0  0 
 17 19  1  0  0  0  0 
 20 19  1  6  0  0  0 
 20 21  1  0  0  0  0 
 21 22  1  0  0  0  0 
 22 23  1  0  0  0  0 
 23 24  2  0  0  0  0 
 24 25  1  0  0  0  0 
 20 25  1  0  0  0  0 
 25 26  1  0  0  0  0 
 26 27  1  0  0  0  0 
 22 27  1  0  0  0  0 
M  END
> <Rank>
8

> <Priority_score>
0.252

> <Reaction_type>
alkyl dehydrogenation

> <Parent_ID>
1

> <Parent_InChI>
InChI=1S/C23H26N2O2/c26-23(27-21-16-24-13-10-18(21)11-14-24)25-15-12-17-6-4-5-9-20(17)22(25)19-7-2-1-3-8-19/h1-9,18,21-22H,10-16H2/t21-,22-/m0/s1

> <Parent_SMILES>
C1([H])=C([H])C([H])=C(C([H])=C1[H])[C@@]2([H])C3=C(C([H])=C([H])C([H])=C3[H])C([H])([H])C([H])([H])N2C(=O)O[C@@]4([H])C([H])([H])N5C([H])([H])C([H])([H])C4([H])C([H])([H])C5([H])[H]

$$$$

  CDK     1104240414

 27 31  0  0  0  0  0  0  0  0999 V2000
   -7.1596   -3.4432    0.0000 C   0  0  0  0  0  0  0  0  0  0  0  0
   -5.7419   -2.9507    0.0000 C   0  0  0  0  0  0  0  0  0  0  0  0
   -5.4601   -1.4774    0.0000 C   0  0  0  0  0  0  0  0  0  0  0  0
   -6.5961   -0.4966    0.0000 C   0  0  0  0  0  0  0  0  0  0  0  0
   -8.0138   -0.9891    0.0000 C   0  0  0  0  0  0  0  0  0  0  0  0
   -8.2956   -2.4624    0.0000 C   0  0  0  0  0  0  0  0  0  0  0  0
   -6.3144    0.9767    0.0000 C   0  0  1  0  0  0  0  0  0  0  0  0
   -7.4504    1.9575    0.0000 C   0  0  0  0  0  0  0  0  0  0  0  0
   -7.1687    3.4308    0.0000 C   0  0  0  0  0  0  0  0  0  0  0  0
   -8.3047    4.4117    0.0000 C   0  0  0  0  0  0  0  0  0  0  0  0
   -9.7224    3.9192    0.0000 C   0  0  0  0  0  0  0  0  0  0  0  0
  -10.0041    2.4459    0.0000 C   0  0  0  0  0  0  0  0  0  0  0  0
   -8.8681    1.4651    0.0000 C   0  0  0  0  0  0  0  0  0  0  0  0
   -5.7509    3.9233    0.0000 C   0  0  0  0  0  0  0  0  0  0  0  0
   -4.6149    2.9425    0.0000 C   0  0  0  0  0  0  0  0  0  0  0  0
   -4.8967    1.4692    0.0000 N   0  0  0  0  0  0  0  0  0  0  0  0
   -3.7618    0.4884    0.0000 C   0  0  0  0  0  0  0  0  0  0  0  0
   -4.0437   -0.9849    0.0000 O   0  0  0  0  0  0  0  0  0  0  0  0
   -2.3449    0.9808    0.0000 O   0  0  0  0  0  0  0  0  0  0  0  0
   -1.2100    0.0000    0.0000 C   0  0  1  0  0  0  0  0  0  0  0  0
   -1.5400   -1.3700    0.0000 C   0  0  0  0  0  0  0  0  0  0  0  0
   -0.1600   -0.8000    0.0000 N   0  0  0  0  0  0  0  0  0  0  0  0
   -0.3300    1.1000    0.0000 C   0  0  0  0  0  0  0  0  0  0  0  0
    0.1600    2.1800    0.0000 C   0  0  0  0  0  0  0  0  0  0  0  0
    0.1600    0.5500    0.0000 C   0  0  0  0  0  0  0  0  0  0  0  0
    1.5900   -0.1500    0.0000 C   0  0  0  0  0  0  0  0  0  0  0  0
    1.3400   -1.5100    0.0000 C   0  0  0  0  0  0  0  0  0  0  0  0
  1  2  2  0  0  0  0 
  2  3  1  0  0  0  0 
  3  4  2  0  0  0  0 
  4  5  1  0  0  0  0 
  5  6  2  0  0  0  0 
  1  6  1  0  0  0  0 
  7  4  1  1  0  0  0 
  7  8  1  0  0  0  0 
  8  9  2  0  0  0  0 
  9 10  1  0  0  0  0 
 10 11  2  0  0  0  0 
 11 12  1  0  0  0  0 
 12 13  2  0  0  0  0 
  8 13  1  0  0  0  0 
  9 14  1  0  0  0  0 
 14 15  1  0  0  0  0 
 15 16  1  0  0  0  0 
  7 16  1  0  0  0  0 
 16 17  1  0  0  0  0 
 17 18  2  0  0  0  0 
 17 19  1  0  0  0  0 
 20 19  1  6  0  0  0 
 20 21  1  0  0  0  0 
 21 22  1  0  0  0  0 
 22 23  2  0  0  0  0 
 23 24  1  0  0  0  0 
 24 25  1  0  0  0  0 
 20 25  1  0  0  0  0 
 25 26  1  0  0  0  0 
 26 27  1  0  0  0  0 
 22 27  1  0  0  0  0 
M  CHG  1  22   1
M  END
> <Rank>
8

> <Priority_score>
0.252

> <Reaction_type>
dehydration of N-C bond

> <Parent_ID>
1

> <Parent_InChI>
InChI=1S/C23H26N2O2/c26-23(27-21-16-24-13-10-18(21)11-14-24)25-15-12-17-6-4-5-9-20(17)22(25)19-7-2-1-3-8-19/h1-9,18,21-22H,10-16H2/t21-,22-/m0/s1

> <Parent_SMILES>
C1([H])=C([H])C([H])=C(C([H])=C1[H])[C@@]2([H])C3=C(C([H])=C([H])C([H])=C3[H])C([H])([H])C([H])([H])N2C(=O)O[C@@]4([H])C([H])([H])N5C([H])([H])C([H])([H])C4([H])C([H])([H])C5([H])[H]

$$$$
