
  CDK     1104240530

 33 35  0  0  0  0  0  0  0  0999 V2000
    2.4222   -9.5615    0.0000 C   0  0  0  0  0  0  0  0  0  0  0  0
    2.2675   -8.0695    0.0000 C   0  0  0  0  0  0  0  0  0  0  0  0
    3.7675   -8.0749    0.0000 C   0  0  0  0  0  0  0  0  0  0  0  0
    0.8077   -8.3811    0.0000 C   0  0  0  0  0  0  0  0  0  0  0  0
    0.1982   -9.7517    0.0000 O   0  0  0  0  0  0  0  0  0  0  0  0
    0.0577   -7.0821    0.0000 N   0  0  0  0  0  0  0  0  0  0  0  0
   -0.9453   -5.9668    0.0000 C   0  0  0  0  0  0  0  0  0  0  0  0
   -2.4136   -6.2777    0.0000 C   0  0  0  0  0  0  0  0  0  0  0  0
   -3.4177   -5.1623    0.0000 C   0  0  0  0  0  0  0  0  0  0  0  0
   -2.9536   -3.7359    0.0000 C   0  0  0  0  0  0  0  0  0  0  0  0
   -3.9566   -2.6206    0.0000 C   0  0  0  0  0  0  0  0  0  0  0  0
   -4.9597   -1.5053    0.0000 N   0  0  0  0  0  0  0  0  0  0  0  0
   -1.4853   -3.4249    0.0000 C   0  0  0  0  0  0  0  0  0  0  0  0
   -0.4812   -4.5404    0.0000 C   0  0  0  0  0  0  0  0  0  0  0  0
   -1.0212   -1.9985    0.0000 C   0  0  0  0  0  0  0  0  0  0  0  0
   -2.0244   -0.8834    0.0000 F   0  0  0  0  0  0  0  0  0  0  0  0
    0.3030   -2.7033    0.0000 F   0  0  0  0  0  0  0  0  0  0  0  0
   -0.0972   -0.8169    0.0000 F   0  0  0  0  0  0  0  0  0  0  0  0
    1.0575   -5.9737    0.0000 C   0  0  0  0  0  0  0  0  0  0  0  0
    0.7420   -4.5073    0.0000 S   0  0  0  0  0  0  0  0  0  0  0  0
    2.4333   -6.5766    0.0000 N   0  0  0  0  0  0  0  0  0  0  0  0
    3.7323   -5.8266    0.0000 C   0  0  0  0  0  0  0  0  0  0  0  0
    3.7325   -4.3258    0.0000 C   0  0  0  0  0  0  0  0  0  0  0  0
    5.0319   -3.5747    0.0000 C   0  0  0  0  0  0  0  0  0  0  0  0
    6.3311   -4.3245    0.0000 C   0  0  0  0  0  0  0  0  0  0  0  0
    6.3308   -5.8253    0.0000 C   0  0  0  0  0  0  0  0  0  0  0  0
    5.0314   -6.5764    0.0000 C   0  0  0  0  0  0  0  0  0  0  0  0
    7.6300   -6.5751    0.0000 F   0  0  0  0  0  0  0  0  0  0  0  0
    7.6301   -3.5745    0.0000 C   0  0  0  0  0  0  0  0  0  0  0  0
    7.6301   -2.0745    0.0000 O   0  0  0  0  0  0  0  0  0  0  0  0
    8.9292   -4.3245    0.0000 N   0  0  0  0  0  0  0  0  0  0  0  0
   10.2282   -3.5745    0.0000 C   0  0  0  0  0  0  0  0  0  0  0  0
   -1.1561   -7.9634    0.0000 O   0  0  0  0  0  0  0  0  0  0  0  0
  1  2  1  0  0  0  0 
  2  3  1  0  0  0  0 
  2  4  1  0  0  0  0 
  4  5  2  0  0  0  0 
  4  6  1  0  0  0  0 
  6  7  1  0  0  0  0 
  7  8  2  0  0  0  0 
  8  9  1  0  0  0  0 
  9 10  2  0  0  0  0 
 10 11  1  0  0  0  0 
 11 12  3  0  0  0  0 
 10 13  1  0  0  0  0 
 13 14  2  0  0  0  0 
  7 14  1  0  0  0  0 
 13 15  1  0  0  0  0 
 15 16  1  0  0  0  0 
 15 17  1  0  0  0  0 
 15 18  1  0  0  0  0 
  6 19  1  0  0  0  0 
 19 20  2  0  0  0  0 
 19 21  1  0  0  0  0 
  2 21  1  0  0  0  0 
 21 22  1  0  0  0  0 
 22 23  2  0  0  0  0 
 23 24  1  0  0  0  0 
 24 25  2  0  0  0  0 
 25 26  1  0  0  0  0 
 26 27  2  0  0  0  0 
 22 27  1  0  0  0  0 
 26 28  1  0  0  0  0 
 25 29  1  0  0  0  0 
 29 30  2  0  0  0  0 
 29 31  1  0  0  0  0 
 31 32  1  0  0  0  0 
  6 33  1  0  0  0  0 
M  CHG  1   6   1
M  CHG  1  33  -1
M  END
> <Rank>
1

> <Priority_score>
2.52

> <Reaction_type>
N-oxidation

> <Parent_ID>
1

> <Parent_InChI>
InChI=1S/C21H16F4N4O2S/c1-20(2)18(31)28(12-5-4-11(10-26)15(8-12)21(23,24)25)19(32)29(20)13-6-7-14(16(22)9-13)17(30)27-3/h4-9H,1-3H3,(H,27,30)

> <Parent_SMILES>
C([H])([H])([H])C1(C([H])([H])[H])C(=O)N(C2=C([H])C([H])=C(C#N)C(=C2[H])C(F)(F)F)C(=S)N1C3=C([H])C([H])=C(C(=C3[H])F)C(=O)N([H])C([H])([H])[H]

$$$$

  CDK     1104240530

 33 35  0  0  0  0  0  0  0  0999 V2000
    1.5315   -3.5852    0.0000 C   0  0  0  0  0  0  0  0  0  0  0  0
    1.3767   -2.0932    0.0000 C   0  0  0  0  0  0  0  0  0  0  0  0
    2.8767   -2.0986    0.0000 C   0  0  0  0  0  0  0  0  0  0  0  0
   -0.0830   -2.4048    0.0000 C   0  0  0  0  0  0  0  0  0  0  0  0
   -0.6925   -3.7754    0.0000 O   0  0  0  0  0  0  0  0  0  0  0  0
   -0.8330   -1.1058    0.0000 N   0  0  0  0  0  0  0  0  0  0  0  0
   -2.3247   -0.9483    0.0000 C   0  0  0  0  0  0  0  0  0  0  0  0
   -3.2076   -2.1620    0.0000 C   0  0  0  0  0  0  0  0  0  0  0  0
   -4.7002   -2.0052    0.0000 C   0  0  0  0  0  0  0  0  0  0  0  0
   -5.3100   -0.6347    0.0000 C   0  0  0  0  0  0  0  0  0  0  0  0
   -6.8017   -0.4772    0.0000 C   0  0  0  0  0  0  0  0  0  0  0  0
   -8.2934   -0.3198    0.0000 N   0  0  0  0  0  0  0  0  0  0  0  0
   -4.4271    0.5790    0.0000 C   0  0  0  0  0  0  0  0  0  0  0  0
   -2.9344    0.4221    0.0000 C   0  0  0  0  0  0  0  0  0  0  0  0
   -5.0368    1.9495    0.0000 C   0  0  0  0  0  0  0  0  0  0  0  0
   -6.5285    2.1067    0.0000 F   0  0  0  0  0  0  0  0  0  0  0  0
   -3.5812    2.3119    0.0000 F   0  0  0  0  0  0  0  0  0  0  0  0
   -5.1410    3.4458    0.0000 F   0  0  0  0  0  0  0  0  0  0  0  0
    0.1667    0.0026    0.0000 C   0  0  0  0  0  0  0  0  0  0  0  0
   -0.1488    1.4690    0.0000 S   0  0  0  0  0  0  0  0  0  0  0  0
    1.5425   -0.6003    0.0000 N   0  0  0  0  0  0  0  0  0  0  0  0
    3.4784   -1.0158    0.0000 C   0  0  0  0  0  0  0  0  0  0  0  0
    4.4850    0.0974    0.0000 C   0  0  0  0  0  0  0  0  0  0  0  0
    5.9526   -0.2168    0.0000 C   0  0  0  0  0  0  0  0  0  0  0  0
    6.4136   -1.6442    0.0000 C   0  0  0  0  0  0  0  0  0  0  0  0
    5.4070   -2.7574    0.0000 C   0  0  0  0  0  0  0  0  0  0  0  0
    3.9394   -2.4432    0.0000 C   0  0  0  0  0  0  0  0  0  0  0  0
    5.8679   -4.1848    0.0000 F   0  0  0  0  0  0  0  0  0  0  0  0
    7.8802   -1.9589    0.0000 C   0  0  0  0  0  0  0  0  0  0  0  0
    8.3409   -3.3864    0.0000 O   0  0  0  0  0  0  0  0  0  0  0  0
    8.8861   -0.8461    0.0000 N   0  0  0  0  0  0  0  0  0  0  0  0
   10.3527   -1.1609    0.0000 C   0  0  0  0  0  0  0  0  0  0  0  0
    2.0032    0.8272    0.0000 O   0  0  0  0  0  0  0  0  0  0  0  0
  1  2  1  0  0  0  0 
  2  3  1  0  0  0  0 
  2  4  1  0  0  0  0 
  4  5  2  0  0  0  0 
  4  6  1  0  0  0  0 
  6  7  1  0  0  0  0 
  7  8  2  0  0  0  0 
  8  9  1  0  0  0  0 
  9 10  2  0  0  0  0 
 10 11  1  0  0  0  0 
 11 12  3  0  0  0  0 
 10 13  1  0  0  0  0 
 13 14  2  0  0  0  0 
  7 14  1  0  0  0  0 
 13 15  1  0  0  0  0 
 15 16  1  0  0  0  0 
 15 17  1  0  0  0  0 
 15 18  1  0  0  0  0 
  6 19  1  0  0  0  0 
 19 20  2  0  0  0  0 
 19 21  1  0  0  0  0 
  2 21  1  0  0  0  0 
 21 22  1  0  0  0  0 
 22 23  2  0  0  0  0 
 23 24  1  0  0  0  0 
 24 25  2  0  0  0  0 
 25 26  1  0  0  0  0 
 26 27  2  0  0  0  0 
 22 27  1  0  0  0  0 
 26 28  1  0  0  0  0 
 25 29  1  0  0  0  0 
 29 30  2  0  0  0  0 
 29 31  1  0  0  0  0 
 31 32  1  0  0  0  0 
 21 33  1  0  0  0  0 
M  CHG  1  21   1
M  CHG  1  33  -1
M  END
> <Rank>
1

> <Priority_score>
2.52

> <Reaction_type>
N-oxidation

> <Parent_ID>
1

> <Parent_InChI>
InChI=1S/C21H16F4N4O2S/c1-20(2)18(31)28(12-5-4-11(10-26)15(8-12)21(23,24)25)19(32)29(20)13-6-7-14(16(22)9-13)17(30)27-3/h4-9H,1-3H3,(H,27,30)

> <Parent_SMILES>
C([H])([H])([H])C1(C([H])([H])[H])C(=O)N(C2=C([H])C([H])=C(C#N)C(=C2[H])C(F)(F)F)C(=S)N1C3=C([H])C([H])=C(C(=C3[H])F)C(=O)N([H])C([H])([H])[H]

$$$$

  CDK     1104240530

 33 35  0  0  0  0  0  0  0  0999 V2000
    3.2302   -6.0100    0.0000 C   0  0  0  0  0  0  0  0  0  0  0  0
    3.0754   -4.5180    0.0000 C   0  0  0  0  0  0  0  0  0  0  0  0
    4.5754   -4.5234    0.0000 C   0  0  0  0  0  0  0  0  0  0  0  0
    1.6157   -4.8296    0.0000 C   0  0  0  0  0  0  0  0  0  0  0  0
    1.0062   -6.2002    0.0000 O   0  0  0  0  0  0  0  0  0  0  0  0
    0.8657   -3.5306    0.0000 N   0  0  0  0  0  0  0  0  0  0  0  0
   -0.6261   -3.3731    0.0000 C   0  0  0  0  0  0  0  0  0  0  0  0
   -1.5090   -4.5868    0.0000 C   0  0  0  0  0  0  0  0  0  0  0  0
   -3.0016   -4.4300    0.0000 C   0  0  0  0  0  0  0  0  0  0  0  0
   -3.6113   -3.0595    0.0000 C   0  0  0  0  0  0  0  0  0  0  0  0
   -5.1030   -2.9020    0.0000 C   0  0  0  0  0  0  0  0  0  0  0  0
   -6.5947   -2.7446    0.0000 N   0  0  0  0  0  0  0  0  0  0  0  0
   -2.7284   -1.8458    0.0000 C   0  0  0  0  0  0  0  0  0  0  0  0
   -1.2358   -2.0026    0.0000 C   0  0  0  0  0  0  0  0  0  0  0  0
   -3.3381   -0.4753    0.0000 C   0  0  0  0  0  0  0  0  0  0  0  0
   -4.8298   -0.3181    0.0000 F   0  0  0  0  0  0  0  0  0  0  0  0
   -1.8826   -0.1128    0.0000 F   0  0  0  0  0  0  0  0  0  0  0  0
   -3.4423    1.0211    0.0000 F   0  0  0  0  0  0  0  0  0  0  0  0
    1.8654   -2.4222    0.0000 C   0  0  0  0  0  0  0  0  0  0  0  0
    1.5499   -0.9558    0.0000 S   0  0  0  0  0  0  0  0  0  0  0  0
    2.6621    0.0507    0.0000 O   0  0  0  0  0  0  0  0  0  0  0  0
    3.2412   -3.0251    0.0000 N   0  0  0  0  0  0  0  0  0  0  0  0
    4.5402   -2.2751    0.0000 C   0  0  0  0  0  0  0  0  0  0  0  0
    4.5405   -0.7743    0.0000 C   0  0  0  0  0  0  0  0  0  0  0  0
    5.8399   -0.0232    0.0000 C   0  0  0  0  0  0  0  0  0  0  0  0
    7.1390   -0.7730    0.0000 C   0  0  0  0  0  0  0  0  0  0  0  0
    7.1388   -2.2738    0.0000 C   0  0  0  0  0  0  0  0  0  0  0  0
    5.8394   -3.0249    0.0000 C   0  0  0  0  0  0  0  0  0  0  0  0
    8.4379   -3.0236    0.0000 F   0  0  0  0  0  0  0  0  0  0  0  0
    8.4381   -0.0230    0.0000 C   0  0  0  0  0  0  0  0  0  0  0  0
    8.4381    1.4770    0.0000 O   0  0  0  0  0  0  0  0  0  0  0  0
    9.7371   -0.7730    0.0000 N   0  0  0  0  0  0  0  0  0  0  0  0
   11.0361   -0.0230    0.0000 C   0  0  0  0  0  0  0  0  0  0  0  0
  1  2  1  0  0  0  0 
  2  3  1  0  0  0  0 
  2  4  1  0  0  0  0 
  4  5  2  0  0  0  0 
  4  6  1  0  0  0  0 
  6  7  1  0  0  0  0 
  7  8  2  0  0  0  0 
  8  9  1  0  0  0  0 
  9 10  2  0  0  0  0 
 10 11  1  0  0  0  0 
 11 12  3  0  0  0  0 
 10 13  1  0  0  0  0 
 13 14  2  0  0  0  0 
  7 14  1  0  0  0  0 
 13 15  1  0  0  0  0 
 15 16  1  0  0  0  0 
 15 17  1  0  0  0  0 
 15 18  1  0  0  0  0 
  6 19  1  0  0  0  0 
 19 20  2  0  0  0  0 
 20 21  2  0  0  0  0 
 19 22  1  0  0  0  0 
  2 22  1  0  0  0  0 
 22 23  1  0  0  0  0 
 23 24  2  0  0  0  0 
 24 25  1  0  0  0  0 
 25 26  2  0  0  0  0 
 26 27  1  0  0  0  0 
 27 28  2  0  0  0  0 
 23 28  1  0  0  0  0 
 27 29  1  0  0  0  0 
 26 30  1  0  0  0  0 
 30 31  2  0  0  0  0 
 30 32  1  0  0  0  0 
 32 33  1  0  0  0  0 
M  END
> <Rank>
3

> <Priority_score>
1.8900000000000001

> <Reaction_type>
S-oxidation

> <Parent_ID>
1

> <Parent_InChI>
InChI=1S/C21H16F4N4O2S/c1-20(2)18(31)28(12-5-4-11(10-26)15(8-12)21(23,24)25)19(32)29(20)13-6-7-14(16(22)9-13)17(30)27-3/h4-9H,1-3H3,(H,27,30)

> <Parent_SMILES>
C([H])([H])([H])C1(C([H])([H])[H])C(=O)N(C2=C([H])C([H])=C(C#N)C(=C2[H])C(F)(F)F)C(=S)N1C3=C([H])C([H])=C(C(=C3[H])F)C(=O)N([H])C([H])([H])[H]

$$$$

  CDK     1104240530

 33 35  0  0  0  0  0  0  0  0999 V2000
    3.2302   -6.0100    0.0000 C   0  0  0  0  0  0  0  0  0  0  0  0
    3.0754   -4.5180    0.0000 C   0  0  0  0  0  0  0  0  0  0  0  0
    4.5754   -4.5234    0.0000 C   0  0  0  0  0  0  0  0  0  0  0  0
    1.6157   -4.8296    0.0000 C   0  0  0  0  0  0  0  0  0  0  0  0
    1.0062   -6.2002    0.0000 O   0  0  0  0  0  0  0  0  0  0  0  0
    0.8657   -3.5306    0.0000 N   0  0  0  0  0  0  0  0  0  0  0  0
   -0.6261   -3.3731    0.0000 C   0  0  0  0  0  0  0  0  0  0  0  0
   -1.5090   -4.5868    0.0000 C   0  0  0  0  0  0  0  0  0  0  0  0
   -3.0016   -4.4300    0.0000 C   0  0  0  0  0  0  0  0  0  0  0  0
   -3.6113   -3.0595    0.0000 C   0  0  0  0  0  0  0  0  0  0  0  0
   -5.1030   -2.9020    0.0000 C   0  0  0  0  0  0  0  0  0  0  0  0
   -6.5947   -2.7446    0.0000 N   0  0  0  0  0  0  0  0  0  0  0  0
   -2.7284   -1.8458    0.0000 C   0  0  0  0  0  0  0  0  0  0  0  0
   -1.2358   -2.0026    0.0000 C   0  0  0  0  0  0  0  0  0  0  0  0
   -3.3381   -0.4753    0.0000 C   0  0  0  0  0  0  0  0  0  0  0  0
   -4.8298   -0.3181    0.0000 F   0  0  0  0  0  0  0  0  0  0  0  0
   -1.8826   -0.1128    0.0000 F   0  0  0  0  0  0  0  0  0  0  0  0
   -3.4423    1.0211    0.0000 F   0  0  0  0  0  0  0  0  0  0  0  0
    1.8654   -2.4222    0.0000 C   0  0  0  0  0  0  0  0  0  0  0  0
    1.5499   -0.9558    0.0000 S   0  0  0  0  0  0  0  0  0  0  0  0
    3.2412   -3.0251    0.0000 N   0  0  0  0  0  0  0  0  0  0  0  0
    4.5402   -2.2751    0.0000 C   0  0  0  0  0  0  0  0  0  0  0  0
    4.5405   -0.7743    0.0000 C   0  0  0  0  0  0  0  0  0  0  0  0
    5.8399   -0.0232    0.0000 C   0  0  0  0  0  0  0  0  0  0  0  0
    7.1390   -0.7730    0.0000 C   0  0  0  0  0  0  0  0  0  0  0  0
    7.1388   -2.2738    0.0000 C   0  0  0  0  0  0  0  0  0  0  0  0
    5.8394   -3.0249    0.0000 C   0  0  0  0  0  0  0  0  0  0  0  0
    8.4379   -3.0236    0.0000 F   0  0  0  0  0  0  0  0  0  0  0  0
    8.4381   -0.0230    0.0000 C   0  0  0  0  0  0  0  0  0  0  0  0
    8.4381    1.4770    0.0000 O   0  0  0  0  0  0  0  0  0  0  0  0
    9.7371   -0.7730    0.0000 N   0  0  0  0  0  0  0  0  0  0  0  0
   11.0361   -0.0230    0.0000 C   0  0  0  0  0  0  0  0  0  0  0  0
    9.7371   -2.2730    0.0000 O   0  0  0  0  0  0  0  0  0  0  0  0
  1  2  1  0  0  0  0 
  2  3  1  0  0  0  0 
  2  4  1  0  0  0  0 
  4  5  2  0  0  0  0 
  4  6  1  0  0  0  0 
  6  7  1  0  0  0  0 
  7  8  2  0  0  0  0 
  8  9  1  0  0  0  0 
  9 10  2  0  0  0  0 
 10 11  1  0  0  0  0 
 11 12  3  0  0  0  0 
 10 13  1  0  0  0  0 
 13 14  2  0  0  0  0 
  7 14  1  0  0  0  0 
 13 15  1  0  0  0  0 
 15 16  1  0  0  0  0 
 15 17  1  0  0  0  0 
 15 18  1  0  0  0  0 
  6 19  1  0  0  0  0 
 19 20  2  0  0  0  0 
 19 21  1  0  0  0  0 
  2 21  1  0  0  0  0 
 21 22  1  0  0  0  0 
 22 23  2  0  0  0  0 
 23 24  1  0  0  0  0 
 24 25  2  0  0  0  0 
 25 26  1  0  0  0  0 
 26 27  2  0  0  0  0 
 22 27  1  0  0  0  0 
 26 28  1  0  0  0  0 
 25 29  1  0  0  0  0 
 29 30  2  0  0  0  0 
 29 31  1  0  0  0  0 
 31 32  1  0  0  0  0 
 31 33  1  0  0  0  0 
M  END
> <Rank>
4

> <Priority_score>
1.3

> <Reaction_type>
amine hydroxylation

> <Parent_ID>
1

> <Parent_InChI>
InChI=1S/C21H16F4N4O2S/c1-20(2)18(31)28(12-5-4-11(10-26)15(8-12)21(23,24)25)19(32)29(20)13-6-7-14(16(22)9-13)17(30)27-3/h4-9H,1-3H3,(H,27,30)

> <Parent_SMILES>
C([H])([H])([H])C1(C([H])([H])[H])C(=O)N(C2=C([H])C([H])=C(C#N)C(=C2[H])C(F)(F)F)C(=S)N1C3=C([H])C([H])=C(C(=C3[H])F)C(=O)N([H])C([H])([H])[H]

$$$$

  CDK     1104240530

 31 33  0  0  0  0  0  0  0  0999 V2000
    0.3690    3.9512    0.0000 C   0  0  0  0  0  0  0  0  0  0  0  0
    0.5238    2.4592    0.0000 C   0  0  0  0  0  0  0  0  0  0  0  0
   -0.9762    2.4646    0.0000 C   0  0  0  0  0  0  0  0  0  0  0  0
    1.9835    2.7708    0.0000 C   0  0  0  0  0  0  0  0  0  0  0  0
    2.5930    4.1414    0.0000 O   0  0  0  0  0  0  0  0  0  0  0  0
    2.7335    1.4718    0.0000 N   0  0  0  0  0  0  0  0  0  0  0  0
    4.2252    1.3143    0.0000 C   0  0  0  0  0  0  0  0  0  0  0  0
    5.1081    2.5280    0.0000 C   0  0  0  0  0  0  0  0  0  0  0  0
    6.6008    2.3712    0.0000 C   0  0  0  0  0  0  0  0  0  0  0  0
    7.2105    1.0007    0.0000 C   0  0  0  0  0  0  0  0  0  0  0  0
    8.7022    0.8432    0.0000 C   0  0  0  0  0  0  0  0  0  0  0  0
   10.1939    0.6858    0.0000 N   0  0  0  0  0  0  0  0  0  0  0  0
    6.3276   -0.2130    0.0000 C   0  0  0  0  0  0  0  0  0  0  0  0
    4.8350   -0.0562    0.0000 C   0  0  0  0  0  0  0  0  0  0  0  0
    6.9373   -1.5835    0.0000 C   0  0  0  0  0  0  0  0  0  0  0  0
    8.4290   -1.7407    0.0000 F   0  0  0  0  0  0  0  0  0  0  0  0
    5.4817   -1.9459    0.0000 F   0  0  0  0  0  0  0  0  0  0  0  0
    7.0415   -3.0799    0.0000 F   0  0  0  0  0  0  0  0  0  0  0  0
    1.7338    0.3634    0.0000 C   0  0  0  0  0  0  0  0  0  0  0  0
    2.0493   -1.1030    0.0000 S   0  0  0  0  0  0  0  0  0  0  0  0
    0.3580    0.9663    0.0000 N   0  0  0  0  0  0  0  0  0  0  0  0
   -0.9410    0.2163    0.0000 C   0  0  0  0  0  0  0  0  0  0  0  0
   -0.9413   -1.2845    0.0000 C   0  0  0  0  0  0  0  0  0  0  0  0
   -2.2407   -2.0356    0.0000 C   0  0  0  0  0  0  0  0  0  0  0  0
   -3.5398   -1.2858    0.0000 C   0  0  0  0  0  0  0  0  0  0  0  0
   -3.5396    0.2150    0.0000 C   0  0  0  0  0  0  0  0  0  0  0  0
   -2.2402    0.9661    0.0000 C   0  0  0  0  0  0  0  0  0  0  0  0
   -4.8387    0.9648    0.0000 F   0  0  0  0  0  0  0  0  0  0  0  0
   -4.8389   -2.0358    0.0000 C   0  0  0  0  0  0  0  0  0  0  0  0
   -4.8389   -3.5358    0.0000 O   0  0  0  0  0  0  0  0  0  0  0  0
   -6.1379   -1.2858    0.0000 N   0  0  0  0  0  0  0  0  0  0  0  0
  1  2  1  0  0  0  0 
  2  3  1  0  0  0  0 
  2  4  1  0  0  0  0 
  4  5  2  0  0  0  0 
  4  6  1  0  0  0  0 
  6  7  1  0  0  0  0 
  7  8  2  0  0  0  0 
  8  9  1  0  0  0  0 
  9 10  2  0  0  0  0 
 10 11  1  0  0  0  0 
 11 12  3  0  0  0  0 
 10 13  1  0  0  0  0 
 13 14  2  0  0  0  0 
  7 14  1  0  0  0  0 
 13 15  1  0  0  0  0 
 15 16  1  0  0  0  0 
 15 17  1  0  0  0  0 
 15 18  1  0  0  0  0 
  6 19  1  0  0  0  0 
 19 20  2  0  0  0  0 
 19 21  1  0  0  0  0 
  2 21  1  0  0  0  0 
 21 22  1  0  0  0  0 
 22 23  2  0  0  0  0 
 23 24  1  0  0  0  0 
 24 25  2  0  0  0  0 
 25 26  1  0  0  0  0 
 26 27  2  0  0  0  0 
 22 27  1  0  0  0  0 
 26 28  1  0  0  0  0 
 25 29  1  0  0  0  0 
 29 30  2  0  0  0  0 
 29 31  1  0  0  0  0 
M  END
> <Rank>
4

> <Priority_score>
1.3

> <Reaction_type>
N-dealkylation

> <Parent_ID>
1

> <Parent_InChI>
InChI=1S/C21H16F4N4O2S/c1-20(2)18(31)28(12-5-4-11(10-26)15(8-12)21(23,24)25)19(32)29(20)13-6-7-14(16(22)9-13)17(30)27-3/h4-9H,1-3H3,(H,27,30)

> <Parent_SMILES>
C([H])([H])([H])C1(C([H])([H])[H])C(=O)N(C2=C([H])C([H])=C(C#N)C(=C2[H])C(F)(F)F)C(=S)N1C3=C([H])C([H])=C(C(=C3[H])F)C(=O)N([H])C([H])([H])[H]

$$$$

  CDK     1104240530

 33 35  0  0  0  0  0  0  0  0999 V2000
    1.3433    3.3887    0.0000 C   0  0  0  0  0  0  0  0  0  0  0  0
    1.4980    1.8967    0.0000 C   0  0  0  0  0  0  0  0  0  0  0  0
   -0.0019    1.9021    0.0000 C   0  0  0  0  0  0  0  0  0  0  0  0
    2.9578    2.2083    0.0000 C   0  0  0  0  0  0  0  0  0  0  0  0
    3.5673    3.5789    0.0000 O   0  0  0  0  0  0  0  0  0  0  0  0
    3.7078    0.9093    0.0000 N   0  0  0  0  0  0  0  0  0  0  0  0
    5.1995    0.7518    0.0000 C   0  0  0  0  0  0  0  0  0  0  0  0
    6.0824    1.9655    0.0000 C   0  0  0  0  0  0  0  0  0  0  0  0
    7.5750    1.8087    0.0000 C   0  0  0  0  0  0  0  0  0  0  0  0
    8.1848    0.4382    0.0000 C   0  0  0  0  0  0  0  0  0  0  0  0
    9.6765    0.2807    0.0000 C   0  0  0  0  0  0  0  0  0  0  0  0
   11.1682    0.1233    0.0000 N   0  0  0  0  0  0  0  0  0  0  0  0
    7.3019   -0.7755    0.0000 C   0  0  0  0  0  0  0  0  0  0  0  0
    5.8092   -0.6187    0.0000 C   0  0  0  0  0  0  0  0  0  0  0  0
    7.9116   -2.1460    0.0000 C   0  0  0  0  0  0  0  0  0  0  0  0
    9.4033   -2.3032    0.0000 F   0  0  0  0  0  0  0  0  0  0  0  0
    6.4560   -2.5084    0.0000 F   0  0  0  0  0  0  0  0  0  0  0  0
    8.0158   -3.6424    0.0000 F   0  0  0  0  0  0  0  0  0  0  0  0
    2.7080   -0.1991    0.0000 C   0  0  0  0  0  0  0  0  0  0  0  0
    3.0236   -1.6655    0.0000 S   0  0  0  0  0  0  0  0  0  0  0  0
    1.3323    0.4038    0.0000 N   0  0  0  0  0  0  0  0  0  0  0  0
    0.0332   -0.3462    0.0000 C   0  0  0  0  0  0  0  0  0  0  0  0
    0.0330   -1.8470    0.0000 C   0  0  0  0  0  0  0  0  0  0  0  0
   -1.2664   -2.5981    0.0000 C   0  0  0  0  0  0  0  0  0  0  0  0
   -2.5656   -1.8483    0.0000 C   0  0  0  0  0  0  0  0  0  0  0  0
   -2.5653   -0.3475    0.0000 C   0  0  0  0  0  0  0  0  0  0  0  0
   -1.2659    0.4036    0.0000 C   0  0  0  0  0  0  0  0  0  0  0  0
   -3.8645    0.4023    0.0000 F   0  0  0  0  0  0  0  0  0  0  0  0
   -3.8646   -2.5983    0.0000 C   0  0  0  0  0  0  0  0  0  0  0  0
   -3.8646   -4.0983    0.0000 O   0  0  0  0  0  0  0  0  0  0  0  0
   -5.1636   -1.8483    0.0000 N   0  0  0  0  0  0  0  0  0  0  0  0
   -6.4627   -2.5983    0.0000 C   0  0  0  0  0  0  0  0  0  0  0  0
   -7.7617   -1.8483    0.0000 O   0  0  0  0  0  0  0  0  0  0  0  0
  1  2  1  0  0  0  0 
  2  3  1  0  0  0  0 
  2  4  1  0  0  0  0 
  4  5  2  0  0  0  0 
  4  6  1  0  0  0  0 
  6  7  1  0  0  0  0 
  7  8  2  0  0  0  0 
  8  9  1  0  0  0  0 
  9 10  2  0  0  0  0 
 10 11  1  0  0  0  0 
 11 12  3  0  0  0  0 
 10 13  1  0  0  0  0 
 13 14  2  0  0  0  0 
  7 14  1  0  0  0  0 
 13 15  1  0  0  0  0 
 15 16  1  0  0  0  0 
 15 17  1  0  0  0  0 
 15 18  1  0  0  0  0 
  6 19  1  0  0  0  0 
 19 20  2  0  0  0  0 
 19 21  1  0  0  0  0 
  2 21  1  0  0  0  0 
 21 22  1  0  0  0  0 
 22 23  2  0  0  0  0 
 23 24  1  0  0  0  0 
 24 25  2  0  0  0  0 
 25 26  1  0  0  0  0 
 26 27  2  0  0  0  0 
 22 27  1  0  0  0  0 
 26 28  1  0  0  0  0 
 25 29  1  0  0  0  0 
 29 30  2  0  0  0  0 
 29 31  1  0  0  0  0 
 31 32  1  0  0  0  0 
 32 33  1  0  0  0  0 
M  END
> <Rank>
4

> <Priority_score>
1.3

> <Reaction_type>
aliphatic hydroxylation

> <Parent_ID>
1

> <Parent_InChI>
InChI=1S/C21H16F4N4O2S/c1-20(2)18(31)28(12-5-4-11(10-26)15(8-12)21(23,24)25)19(32)29(20)13-6-7-14(16(22)9-13)17(30)27-3/h4-9H,1-3H3,(H,27,30)

> <Parent_SMILES>
C([H])([H])([H])C1(C([H])([H])[H])C(=O)N(C2=C([H])C([H])=C(C#N)C(=C2[H])C(F)(F)F)C(=S)N1C3=C([H])C([H])=C(C(=C3[H])F)C(=O)N([H])C([H])([H])[H]

$$$$

  CDK     1104240530

 32 34  0  0  0  0  0  0  0  0999 V2000
    3.2302   -6.0100    0.0000 C   0  0  0  0  0  0  0  0  0  0  0  0
    3.0754   -4.5180    0.0000 C   0  0  0  0  0  0  0  0  0  0  0  0
    4.5754   -4.5234    0.0000 C   0  0  0  0  0  0  0  0  0  0  0  0
    1.6157   -4.8296    0.0000 C   0  0  0  0  0  0  0  0  0  0  0  0
    1.0062   -6.2002    0.0000 O   0  0  0  0  0  0  0  0  0  0  0  0
    0.8657   -3.5306    0.0000 N   0  0  0  0  0  0  0  0  0  0  0  0
   -0.6261   -3.3731    0.0000 C   0  0  0  0  0  0  0  0  0  0  0  0
   -1.5090   -4.5868    0.0000 C   0  0  0  0  0  0  0  0  0  0  0  0
   -3.0016   -4.4300    0.0000 C   0  0  0  0  0  0  0  0  0  0  0  0
   -3.6113   -3.0595    0.0000 C   0  0  0  0  0  0  0  0  0  0  0  0
   -5.1030   -2.9020    0.0000 C   0  0  0  0  0  0  0  0  0  0  0  0
   -6.5947   -2.7446    0.0000 N   0  0  0  0  0  0  0  0  0  0  0  0
   -2.7284   -1.8458    0.0000 C   0  0  0  0  0  0  0  0  0  0  0  0
   -1.2358   -2.0026    0.0000 C   0  0  0  0  0  0  0  0  0  0  0  0
   -3.3381   -0.4753    0.0000 C   0  0  0  0  0  0  0  0  0  0  0  0
   -4.8298   -0.3181    0.0000 F   0  0  0  0  0  0  0  0  0  0  0  0
   -1.8826   -0.1128    0.0000 F   0  0  0  0  0  0  0  0  0  0  0  0
   -3.4423    1.0211    0.0000 F   0  0  0  0  0  0  0  0  0  0  0  0
    1.8654   -2.4222    0.0000 C   0  0  0  0  0  0  0  0  0  0  0  0
    1.5499   -0.9558    0.0000 O   0  0  0  0  0  0  0  0  0  0  0  0
    3.2412   -3.0251    0.0000 N   0  0  0  0  0  0  0  0  0  0  0  0
    4.5402   -2.2751    0.0000 C   0  0  0  0  0  0  0  0  0  0  0  0
    4.5405   -0.7743    0.0000 C   0  0  0  0  0  0  0  0  0  0  0  0
    5.8399   -0.0232    0.0000 C   0  0  0  0  0  0  0  0  0  0  0  0
    7.1390   -0.7730    0.0000 C   0  0  0  0  0  0  0  0  0  0  0  0
    7.1388   -2.2738    0.0000 C   0  0  0  0  0  0  0  0  0  0  0  0
    5.8394   -3.0249    0.0000 C   0  0  0  0  0  0  0  0  0  0  0  0
    8.4379   -3.0236    0.0000 F   0  0  0  0  0  0  0  0  0  0  0  0
    8.4381   -0.0230    0.0000 C   0  0  0  0  0  0  0  0  0  0  0  0
    8.4381    1.4770    0.0000 O   0  0  0  0  0  0  0  0  0  0  0  0
    9.7371   -0.7730    0.0000 N   0  0  0  0  0  0  0  0  0  0  0  0
   11.0361   -0.0230    0.0000 C   0  0  0  0  0  0  0  0  0  0  0  0
  1  2  1  0  0  0  0 
  2  3  1  0  0  0  0 
  2  4  1  0  0  0  0 
  4  5  2  0  0  0  0 
  4  6  1  0  0  0  0 
  6  7  1  0  0  0  0 
  7  8  2  0  0  0  0 
  8  9  1  0  0  0  0 
  9 10  2  0  0  0  0 
 10 11  1  0  0  0  0 
 11 12  3  0  0  0  0 
 10 13  1  0  0  0  0 
 13 14  2  0  0  0  0 
  7 14  1  0  0  0  0 
 13 15  1  0  0  0  0 
 15 16  1  0  0  0  0 
 15 17  1  0  0  0  0 
 15 18  1  0  0  0  0 
  6 19  1  0  0  0  0 
 19 20  2  0  0  0  0 
 19 21  1  0  0  0  0 
  2 21  1  0  0  0  0 
 21 22  1  0  0  0  0 
 22 23  2  0  0  0  0 
 23 24  1  0  0  0  0 
 24 25  2  0  0  0  0 
 25 26  1  0  0  0  0 
 26 27  2  0  0  0  0 
 22 27  1  0  0  0  0 
 26 28  1  0  0  0  0 
 25 29  1  0  0  0  0 
 29 30  2  0  0  0  0 
 29 31  1  0  0  0  0 
 31 32  1  0  0  0  0 
M  END
> <Rank>
7

> <Priority_score>
0.504

> <Reaction_type>
desulfuration of carbon

> <Parent_ID>
1

> <Parent_InChI>
InChI=1S/C21H16F4N4O2S/c1-20(2)18(31)28(12-5-4-11(10-26)15(8-12)21(23,24)25)19(32)29(20)13-6-7-14(16(22)9-13)17(30)27-3/h4-9H,1-3H3,(H,27,30)

> <Parent_SMILES>
C([H])([H])([H])C1(C([H])([H])[H])C(=O)N(C2=C([H])C([H])=C(C#N)C(=C2[H])C(F)(F)F)C(=S)N1C3=C([H])C([H])=C(C(=C3[H])F)C(=O)N([H])C([H])([H])[H]

$$$$

  CDK     1104240530

 32 34  0  0  0  0  0  0  0  0999 V2000
    3.2302   -6.0100    0.0000 C   0  0  0  0  0  0  0  0  0  0  0  0
    3.0754   -4.5180    0.0000 C   0  0  0  0  0  0  0  0  0  0  0  0
    4.5754   -4.5234    0.0000 C   0  0  0  0  0  0  0  0  0  0  0  0
    1.6157   -4.8296    0.0000 C   0  0  0  0  0  0  0  0  0  0  0  0
    1.0062   -6.2002    0.0000 O   0  0  0  0  0  0  0  0  0  0  0  0
    0.8657   -3.5306    0.0000 N   0  0  0  0  0  0  0  0  0  0  0  0
   -0.6261   -3.3731    0.0000 C   0  0  0  0  0  0  0  0  0  0  0  0
   -1.5090   -4.5868    0.0000 C   0  0  0  0  0  0  0  0  0  0  0  0
   -3.0016   -4.4300    0.0000 C   0  0  0  0  0  0  0  0  0  0  0  0
   -3.6113   -3.0595    0.0000 C   0  0  0  0  0  0  0  0  0  0  0  0
   -5.1030   -2.9020    0.0000 C   0  0  0  0  0  0  0  0  0  0  0  0
   -6.5947   -2.7446    0.0000 N   0  0  0  0  0  0  0  0  0  0  0  0
   -2.7284   -1.8458    0.0000 C   0  0  0  0  0  0  0  0  0  0  0  0
   -1.2358   -2.0026    0.0000 C   0  0  0  0  0  0  0  0  0  0  0  0
   -3.3381   -0.4753    0.0000 C   0  0  0  0  0  0  0  0  0  0  0  0
   -4.8298   -0.3181    0.0000 F   0  0  0  0  0  0  0  0  0  0  0  0
   -1.8826   -0.1128    0.0000 F   0  0  0  0  0  0  0  0  0  0  0  0
   -3.4423    1.0211    0.0000 F   0  0  0  0  0  0  0  0  0  0  0  0
    1.8654   -2.4222    0.0000 C   0  0  0  0  0  0  0  0  0  0  0  0
    1.5499   -0.9558    0.0000 S   0  0  0  0  0  0  0  0  0  0  0  0
    3.2412   -3.0251    0.0000 N   0  0  0  0  0  0  0  0  0  0  0  0
    4.5402   -2.2751    0.0000 C   0  0  0  0  0  0  0  0  0  0  0  0
    4.5405   -0.7743    0.0000 C   0  0  0  0  0  0  0  0  0  0  0  0
    5.8399   -0.0232    0.0000 C   0  0  0  0  0  0  0  0  0  0  0  0
    7.1390   -0.7730    0.0000 C   0  0  0  0  0  0  0  0  0  0  0  0
    7.1388   -2.2738    0.0000 C   0  0  0  0  0  0  0  0  0  0  0  0
    5.8394   -3.0249    0.0000 C   0  0  0  0  0  0  0  0  0  0  0  0
    8.4379   -3.0236    0.0000 F   0  0  0  0  0  0  0  0  0  0  0  0
    8.4381   -0.0230    0.0000 C   0  0  0  0  0  0  0  0  0  0  0  0
    8.4381    1.4770    0.0000 O   0  0  0  0  0  0  0  0  0  0  0  0
    9.7371   -0.7730    0.0000 N   0  0  0  0  0  0  0  0  0  0  0  0
   11.0361   -0.0230    0.0000 C   0  0  0  0  0  0  0  0  0  0  0  0
  1  2  1  0  0  0  0 
  2  3  1  0  0  0  0 
  2  4  1  0  0  0  0 
  4  5  2  0  0  0  0 
  4  6  1  0  0  0  0 
  6  7  1  0  0  0  0 
  7  8  2  0  0  0  0 
  8  9  1  0  0  0  0 
  9 10  2  0  0  0  0 
 10 11  1  0  0  0  0 
 11 12  3  0  0  0  0 
 10 13  1  0  0  0  0 
 13 14  2  0  0  0  0 
  7 14  1  0  0  0  0 
 13 15  1  0  0  0  0 
 15 16  1  0  0  0  0 
 15 17  1  0  0  0  0 
 15 18  1  0  0  0  0 
  6 19  1  0  0  0  0 
 19 20  2  0  0  0  0 
 19 21  1  0  0  0  0 
  2 21  1  0  0  0  0 
 21 22  1  0  0  0  0 
 22 23  2  0  0  0  0 
 23 24  1  0  0  0  0 
 24 25  2  0  0  0  0 
 25 26  1  0  0  0  0 
 26 27  2  0  0  0  0 
 22 27  1  0  0  0  0 
 26 28  1  0  0  0  0 
 25 29  1  0  0  0  0 
 29 30  2  0  0  0  0 
 29 31  1  0  0  0  0 
 31 32  2  0  0  0  0 
M  CHG  1  31   1
M  END
> <Rank>
8

> <Priority_score>
0.26

> <Reaction_type>
dehydration of N-C bond

> <Parent_ID>
1

> <Parent_InChI>
InChI=1S/C21H16F4N4O2S/c1-20(2)18(31)28(12-5-4-11(10-26)15(8-12)21(23,24)25)19(32)29(20)13-6-7-14(16(22)9-13)17(30)27-3/h4-9H,1-3H3,(H,27,30)

> <Parent_SMILES>
C([H])([H])([H])C1(C([H])([H])[H])C(=O)N(C2=C([H])C([H])=C(C#N)C(=C2[H])C(F)(F)F)C(=S)N1C3=C([H])C([H])=C(C(=C3[H])F)C(=O)N([H])C([H])([H])[H]

$$$$
