
  CDK     1104240423

 32 35  0  0  0  0  0  0  0  0999 V2000
   -3.3061   -1.0274    0.0000 C   0  0  0  0  0  0  0  0  0  0  0  0
   -3.8988    0.3232    0.0000 C   0  0  0  0  0  0  0  0  0  0  0  0
   -3.0225    1.5407    0.0000 C   0  0  0  0  0  0  0  0  0  0  0  0
   -1.5536    1.4076    0.0000 C   0  0  0  0  0  0  0  0  0  0  0  0
   -0.8960    0.0102    0.0000 C   0  0  0  0  0  0  0  0  0  0  0  0
   -1.7723   -1.2073    0.0000 C   0  0  0  0  0  0  0  0  0  0  0  0
    0.5976   -0.1276    0.0000 O   0  0  0  0  0  0  0  0  0  0  0  0
   -5.3905    0.4807    0.0000 C   0  0  0  0  0  0  0  0  0  0  0  0
   -6.0002    1.8512    0.0000 C   0  0  0  0  0  0  0  0  0  0  0  0
   -7.4928    2.0080    0.0000 N   0  0  0  0  0  0  0  0  0  0  0  0
   -8.3757    0.7943    0.0000 C   0  0  0  0  0  0  0  0  0  0  0  0
   -7.7660   -0.5762    0.0000 C   0  0  0  0  0  0  0  0  0  0  0  0
   -6.2734   -0.7330    0.0000 C   0  0  0  0  0  0  0  0  0  0  0  0
   -9.8674    0.9518    0.0000 C   0  0  0  0  0  0  0  0  0  0  0  0
  -10.7496   -0.2614    0.0000 C   0  0  2  0  0  0  0  0  0  0  0  0
  -12.2413   -0.1039    0.0000 C   0  0  0  0  0  0  0  0  0  0  0  0
  -12.8508    1.2667    0.0000 N   0  0  0  0  0  0  0  0  0  0  0  0
  -12.1045    2.5594    0.0000 C   0  0  0  0  0  0  0  0  0  0  0  0
  -13.1020    3.6824    0.0000 N   0  0  0  0  0  0  0  0  0  0  0  0
  -14.4712    3.0646    0.0000 N   0  0  0  0  0  0  0  0  0  0  0  0
  -14.3178    1.5798    0.0000 N   0  0  0  0  0  0  0  0  0  0  0  0
  -11.1637   -1.7031    0.0000 C   0  0  0  0  0  0  0  0  0  0  0  0
  -12.6201   -2.0657    0.0000 C   0  0  0  0  0  0  0  0  0  0  0  0
  -13.0351   -3.5081    0.0000 C   0  0  0  0  0  0  0  0  0  0  0  0
  -11.9938   -4.5877    0.0000 C   0  0  0  0  0  0  0  0  0  0  0  0
  -10.5374   -4.2250    0.0000 C   0  0  0  0  0  0  0  0  0  0  0  0
  -10.1224   -2.7827    0.0000 C   0  0  0  0  0  0  0  0  0  0  0  0
   -8.6667   -2.4209    0.0000 F   0  0  0  0  0  0  0  0  0  0  0  0
  -12.4079   -6.0294    0.0000 F   0  0  0  0  0  0  0  0  0  0  0  0
   -9.4017   -0.9195    0.0000 O   0  0  0  0  0  0  0  0  0  0  0  0
   -9.4533    2.3935    0.0000 F   0  0  0  0  0  0  0  0  0  0  0  0
  -11.2153    1.6099    0.0000 F   0  0  0  0  0  0  0  0  0  0  0  0
  1  2  2  0  0  0  0 
  2  3  1  0  0  0  0 
  3  4  2  0  0  0  0 
  4  5  1  0  0  0  0 
  5  6  2  0  0  0  0 
  1  6  1  0  0  0  0 
  5  7  1  0  0  0  0 
  2  8  1  0  0  0  0 
  8  9  2  0  0  0  0 
  9 10  1  0  0  0  0 
 10 11  2  0  0  0  0 
 11 12  1  0  0  0  0 
 12 13  2  0  0  0  0 
  8 13  1  0  0  0  0 
 11 14  1  0  0  0  0 
 14 15  1  0  0  0  0 
 15 16  1  0  0  0  0 
 16 17  1  0  0  0  0 
 17 18  1  0  0  0  0 
 18 19  2  0  0  0  0 
 19 20  1  0  0  0  0 
 20 21  2  0  0  0  0 
 17 21  1  0  0  0  0 
 15 22  1  1  0  0  0 
 22 23  2  0  0  0  0 
 23 24  1  0  0  0  0 
 24 25  2  0  0  0  0 
 25 26  1  0  0  0  0 
 26 27  2  0  0  0  0 
 22 27  1  0  0  0  0 
 27 28  1  0  0  0  0 
 25 29  1  0  0  0  0 
 15 30  1  6  0  0  0 
 14 31  1  0  0  0  0 
 14 32  1  0  0  0  0 
M  END
> <Rank>
1

> <Priority_score>
2.2800000000000002

> <Reaction_type>
oxidative ether cleavage to one alcohol and one aldehyde/ketone

> <Parent_ID>
1

> <Parent_InChI>
InChI=1S/C23H16F7N5O2/c24-16-4-7-18(19(25)9-16)21(36,11-35-13-32-33-34-35)23(29,30)20-8-3-15(10-31-20)14-1-5-17(6-2-14)37-12-22(26,27)28/h1-10,13,36H,11-12H2/t21-/m0/s1

> <Parent_SMILES>
C1([H])=C(C([H])=C([H])C(=C1[H])OC([H])([H])C(F)(F)F)C2=C([H])N=C(C([H])=C2[H])C([C@](C([H])([H])N3C([H])=NN=N3)(C4=C([H])C([H])=C(C([H])=C4F)F)O[H])(F)F

$$$$

  CDK     1104240423

  6  5  0  0  0  0  0  0  0  0999 V2000
    1.2990   -0.7500    0.0000 C   0  0  0  0  0  0  0  0  0  0  0  0
    0.0000    0.0000    0.0000 O   0  0  0  0  0  0  0  0  0  0  0  0
    2.5981   -0.0000    0.0000 C   0  0  0  0  0  0  0  0  0  0  0  0
    3.8971   -0.7500    0.0000 F   0  0  0  0  0  0  0  0  0  0  0  0
    3.5623    1.1491    0.0000 F   0  0  0  0  0  0  0  0  0  0  0  0
    1.6339    1.1491    0.0000 F   0  0  0  0  0  0  0  0  0  0  0  0
  1  2  2  0  0  0  0 
  1  3  1  0  0  0  0 
  3  4  1  0  0  0  0 
  3  5  1  0  0  0  0 
  3  6  1  0  0  0  0 
M  END
> <Rank>
1

> <Priority_score>
2.2800000000000002

> <Reaction_type>
oxidative ether cleavage to one alcohol and one aldehyde/ketone

> <Parent_ID>
1

> <Parent_InChI>
InChI=1S/C23H16F7N5O2/c24-16-4-7-18(19(25)9-16)21(36,11-35-13-32-33-34-35)23(29,30)20-8-3-15(10-31-20)14-1-5-17(6-2-14)37-12-22(26,27)28/h1-10,13,36H,11-12H2/t21-/m0/s1

> <Parent_SMILES>
C1([H])=C(C([H])=C([H])C(=C1[H])OC([H])([H])C(F)(F)F)C2=C([H])N=C(C([H])=C2[H])C([C@](C([H])([H])N3C([H])=NN=N3)(C4=C([H])C([H])=C(C([H])=C4F)F)O[H])(F)F

$$$$

  CDK     1104240423

 38 41  0  0  0  0  0  0  0  0999 V2000
  -10.5675   -1.3197    0.0000 C   0  0  0  0  0  0  0  0  0  0  0  0
   -9.9748   -2.6703    0.0000 C   0  0  0  0  0  0  0  0  0  0  0  0
  -10.8510   -3.8877    0.0000 C   0  0  0  0  0  0  0  0  0  0  0  0
  -12.3199   -3.7546    0.0000 C   0  0  0  0  0  0  0  0  0  0  0  0
  -12.9775   -2.3573    0.0000 C   0  0  0  0  0  0  0  0  0  0  0  0
  -12.1013   -1.1398    0.0000 C   0  0  0  0  0  0  0  0  0  0  0  0
  -14.4712   -2.2195    0.0000 O   0  0  0  0  0  0  0  0  0  0  0  0
  -15.3374   -3.4441    0.0000 C   0  0  0  0  0  0  0  0  0  0  0  0
  -16.8310   -3.3063    0.0000 C   0  0  0  0  0  0  0  0  0  0  0  0
  -17.6972   -4.5310    0.0000 F   0  0  0  0  0  0  0  0  0  0  0  0
  -16.4359   -1.8593    0.0000 F   0  0  0  0  0  0  0  0  0  0  0  0
  -18.1875   -2.6660    0.0000 F   0  0  0  0  0  0  0  0  0  0  0  0
  -14.7099   -4.8066    0.0000 O   0  0  0  0  0  0  0  0  0  0  0  0
   -8.4831   -2.8277    0.0000 C   0  0  0  0  0  0  0  0  0  0  0  0
   -7.8734   -4.1982    0.0000 C   0  0  0  0  0  0  0  0  0  0  0  0
   -6.3808   -4.3550    0.0000 N   0  0  0  0  0  0  0  0  0  0  0  0
   -5.4979   -3.1414    0.0000 C   0  0  0  0  0  0  0  0  0  0  0  0
   -6.1076   -1.7709    0.0000 C   0  0  0  0  0  0  0  0  0  0  0  0
   -7.6002   -1.6141    0.0000 C   0  0  0  0  0  0  0  0  0  0  0  0
   -4.0061   -3.2988    0.0000 C   0  0  0  0  0  0  0  0  0  0  0  0
   -3.1239   -2.0857    0.0000 C   0  0  2  0  0  0  0  0  0  0  0  0
   -1.6322   -2.2431    0.0000 C   0  0  0  0  0  0  0  0  0  0  0  0
   -1.0227   -3.6137    0.0000 N   0  0  0  0  0  0  0  0  0  0  0  0
   -1.7690   -4.9064    0.0000 C   0  0  0  0  0  0  0  0  0  0  0  0
   -0.7715   -6.0294    0.0000 N   0  0  0  0  0  0  0  0  0  0  0  0
    0.5976   -5.4116    0.0000 N   0  0  0  0  0  0  0  0  0  0  0  0
    0.4442   -3.9269    0.0000 N   0  0  0  0  0  0  0  0  0  0  0  0
   -2.7098   -0.6440    0.0000 C   0  0  0  0  0  0  0  0  0  0  0  0
   -1.2535   -0.2813    0.0000 C   0  0  0  0  0  0  0  0  0  0  0  0
   -0.8385    1.1610    0.0000 C   0  0  0  0  0  0  0  0  0  0  0  0
   -1.8798    2.2406    0.0000 C   0  0  0  0  0  0  0  0  0  0  0  0
   -3.3362    1.8780    0.0000 C   0  0  0  0  0  0  0  0  0  0  0  0
   -3.7512    0.4357    0.0000 C   0  0  0  0  0  0  0  0  0  0  0  0
   -5.2069    0.0739    0.0000 F   0  0  0  0  0  0  0  0  0  0  0  0
   -1.4657    3.6824    0.0000 F   0  0  0  0  0  0  0  0  0  0  0  0
   -4.4718   -1.4275    0.0000 O   0  0  0  0  0  0  0  0  0  0  0  0
   -4.4202   -4.7405    0.0000 F   0  0  0  0  0  0  0  0  0  0  0  0
   -2.6582   -3.9570    0.0000 F   0  0  0  0  0  0  0  0  0  0  0  0
  1  2  2  0  0  0  0 
  2  3  1  0  0  0  0 
  3  4  2  0  0  0  0 
  4  5  1  0  0  0  0 
  5  6  2  0  0  0  0 
  1  6  1  0  0  0  0 
  5  7  1  0  0  0  0 
  7  8  1  0  0  0  0 
  8  9  1  0  0  0  0 
  9 10  1  0  0  0  0 
  9 11  1  0  0  0  0 
  9 12  1  0  0  0  0 
  8 13  1  0  0  0  0 
  2 14  1  0  0  0  0 
 14 15  2  0  0  0  0 
 15 16  1  0  0  0  0 
 16 17  2  0  0  0  0 
 17 18  1  0  0  0  0 
 18 19  2  0  0  0  0 
 14 19  1  0  0  0  0 
 17 20  1  0  0  0  0 
 20 21  1  0  0  0  0 
 21 22  1  0  0  0  0 
 22 23  1  0  0  0  0 
 23 24  1  0  0  0  0 
 24 25  2  0  0  0  0 
 25 26  1  0  0  0  0 
 26 27  2  0  0  0  0 
 23 27  1  0  0  0  0 
 21 28  1  1  0  0  0 
 28 29  2  0  0  0  0 
 29 30  1  0  0  0  0 
 30 31  2  0  0  0  0 
 31 32  1  0  0  0  0 
 32 33  2  0  0  0  0 
 28 33  1  0  0  0  0 
 33 34  1  0  0  0  0 
 31 35  1  0  0  0  0 
 21 36  1  6  0  0  0 
 20 37  1  0  0  0  0 
 20 38  1  0  0  0  0 
M  END
> <Rank>
1

> <Priority_score>
2.2800000000000002

> <Reaction_type>
aliphatic hydroxylation

> <Parent_ID>
1

> <Parent_InChI>
InChI=1S/C23H16F7N5O2/c24-16-4-7-18(19(25)9-16)21(36,11-35-13-32-33-34-35)23(29,30)20-8-3-15(10-31-20)14-1-5-17(6-2-14)37-12-22(26,27)28/h1-10,13,36H,11-12H2/t21-/m0/s1

> <Parent_SMILES>
C1([H])=C(C([H])=C([H])C(=C1[H])OC([H])([H])C(F)(F)F)C2=C([H])N=C(C([H])=C2[H])C([C@](C([H])([H])N3C([H])=NN=N3)(C4=C([H])C([H])=C(C([H])=C4F)F)O[H])(F)F

$$$$

  CDK     1104240423

  8  8  0  0  0  0  0  0  0  0999 V2000
    1.2995   -0.7508    0.0000 C   0  0  0  0  0  0  0  0  0  0  0  0
    0.0005   -1.5008    0.0000 C   0  0  0  0  0  0  0  0  0  0  0  0
   -1.2990   -0.7500    0.0000 C   0  0  0  0  0  0  0  0  0  0  0  0
   -2.5981   -1.5000    0.0000 O   0  0  0  0  0  0  0  0  0  0  0  0
   -1.2995    0.7508    0.0000 C   0  0  0  0  0  0  0  0  0  0  0  0
   -0.0005    1.5008    0.0000 C   0  0  0  0  0  0  0  0  0  0  0  0
    1.2990    0.7500    0.0000 C   0  0  0  0  0  0  0  0  0  0  0  0
    2.5981    1.5000    0.0000 O   0  0  0  0  0  0  0  0  0  0  0  0
  1  2  2  0  0  0  0 
  2  3  1  0  0  0  0 
  3  4  2  0  0  0  0 
  3  5  1  0  0  0  0 
  5  6  2  0  0  0  0 
  6  7  1  0  0  0  0 
  1  7  1  0  0  0  0 
  7  8  2  0  0  0  0 
M  END
> <Rank>
4

> <Priority_score>
0.456

> <Reaction_type>
oxidation of 4-substituted anisole to quinone

> <Parent_ID>
1

> <Parent_InChI>
InChI=1S/C23H16F7N5O2/c24-16-4-7-18(19(25)9-16)21(36,11-35-13-32-33-34-35)23(29,30)20-8-3-15(10-31-20)14-1-5-17(6-2-14)37-12-22(26,27)28/h1-10,13,36H,11-12H2/t21-/m0/s1

> <Parent_SMILES>
C1([H])=C(C([H])=C([H])C(=C1[H])OC([H])([H])C(F)(F)F)C2=C([H])N=C(C([H])=C2[H])C([C@](C([H])([H])N3C([H])=NN=N3)(C4=C([H])C([H])=C(C([H])=C4F)F)O[H])(F)F

$$$$

  CDK     1104240423

 25 27  0  0  0  0  0  0  0  0999 V2000
   -7.8727   -4.1961    0.0000 C   0  0  0  0  0  0  0  0  0  0  0  0
   -6.3803   -4.3544    0.0000 C   0  0  0  0  0  0  0  0  0  0  0  0
   -5.4979   -3.1414    0.0000 C   0  0  0  0  0  0  0  0  0  0  0  0
   -6.1079   -1.7701    0.0000 N   0  0  0  0  0  0  0  0  0  0  0  0
   -7.6004   -1.6119    0.0000 C   0  0  0  0  0  0  0  0  0  0  0  0
   -8.4828   -2.8249    0.0000 C   0  0  0  0  0  0  0  0  0  0  0  0
   -4.0061   -3.2988    0.0000 C   0  0  0  0  0  0  0  0  0  0  0  0
   -3.1239   -2.0857    0.0000 C   0  0  2  0  0  0  0  0  0  0  0  0
   -1.6322   -2.2431    0.0000 C   0  0  0  0  0  0  0  0  0  0  0  0
   -1.0227   -3.6137    0.0000 N   0  0  0  0  0  0  0  0  0  0  0  0
   -1.7690   -4.9064    0.0000 C   0  0  0  0  0  0  0  0  0  0  0  0
   -0.7715   -6.0294    0.0000 N   0  0  0  0  0  0  0  0  0  0  0  0
    0.5976   -5.4116    0.0000 N   0  0  0  0  0  0  0  0  0  0  0  0
    0.4442   -3.9269    0.0000 N   0  0  0  0  0  0  0  0  0  0  0  0
   -2.7098   -0.6440    0.0000 C   0  0  0  0  0  0  0  0  0  0  0  0
   -1.2535   -0.2813    0.0000 C   0  0  0  0  0  0  0  0  0  0  0  0
   -0.8385    1.1610    0.0000 C   0  0  0  0  0  0  0  0  0  0  0  0
   -1.8798    2.2406    0.0000 C   0  0  0  0  0  0  0  0  0  0  0  0
   -3.3362    1.8780    0.0000 C   0  0  0  0  0  0  0  0  0  0  0  0
   -3.7512    0.4357    0.0000 C   0  0  0  0  0  0  0  0  0  0  0  0
   -5.2069    0.0739    0.0000 F   0  0  0  0  0  0  0  0  0  0  0  0
   -1.4657    3.6824    0.0000 F   0  0  0  0  0  0  0  0  0  0  0  0
   -4.4718   -1.4275    0.0000 O   0  0  0  0  0  0  0  0  0  0  0  0
   -4.4202   -4.7405    0.0000 F   0  0  0  0  0  0  0  0  0  0  0  0
   -2.6582   -3.9570    0.0000 F   0  0  0  0  0  0  0  0  0  0  0  0
  1  2  2  0  0  0  0 
  2  3  1  0  0  0  0 
  3  4  2  0  0  0  0 
  4  5  1  0  0  0  0 
  5  6  2  0  0  0  0 
  1  6  1  0  0  0  0 
  3  7  1  0  0  0  0 
  7  8  1  0  0  0  0 
  8  9  1  0  0  0  0 
  9 10  1  0  0  0  0 
 10 11  1  0  0  0  0 
 11 12  2  0  0  0  0 
 12 13  1  0  0  0  0 
 13 14  2  0  0  0  0 
 10 14  1  0  0  0  0 
  8 15  1  1  0  0  0 
 15 16  2  0  0  0  0 
 16 17  1  0  0  0  0 
 17 18  2  0  0  0  0 
 18 19  1  0  0  0  0 
 19 20  2  0  0  0  0 
 15 20  1  0  0  0  0 
 20 21  1  0  0  0  0 
 18 22  1  0  0  0  0 
  8 23  1  6  0  0  0 
  7 24  1  0  0  0  0 
  7 25  1  0  0  0  0 
M  END
> <Rank>
4

> <Priority_score>
0.456

> <Reaction_type>
oxidation of 4-substituted anisole to quinone

> <Parent_ID>
1

> <Parent_InChI>
InChI=1S/C23H16F7N5O2/c24-16-4-7-18(19(25)9-16)21(36,11-35-13-32-33-34-35)23(29,30)20-8-3-15(10-31-20)14-1-5-17(6-2-14)37-12-22(26,27)28/h1-10,13,36H,11-12H2/t21-/m0/s1

> <Parent_SMILES>
C1([H])=C(C([H])=C([H])C(=C1[H])OC([H])([H])C(F)(F)F)C2=C([H])N=C(C([H])=C2[H])C([C@](C([H])([H])N3C([H])=NN=N3)(C4=C([H])C([H])=C(C([H])=C4F)F)O[H])(F)F

$$$$

  CDK     1104240423

  5  4  0  0  0  0  0  0  0  0999 V2000
    0.6488    0.5223    0.0000 C   0  0  0  0  0  0  0  0  0  0  0  0
    1.3988   -0.7767    0.0000 C   0  0  0  0  0  0  0  0  0  0  0  0
    2.8988   -0.7767    0.0000 F   0  0  0  0  0  0  0  0  0  0  0  0
   -0.0107   -1.2898    0.0000 F   0  0  0  0  0  0  0  0  0  0  0  0
    1.6593   -2.2539    0.0000 F   0  0  0  0  0  0  0  0  0  0  0  0
  1  2  1  0  0  0  0 
  2  3  1  0  0  0  0 
  2  4  1  0  0  0  0 
  2  5  1  0  0  0  0 
M  END
> <Rank>
4

> <Priority_score>
0.456

> <Reaction_type>
oxidation of 4-substituted anisole to quinone

> <Parent_ID>
1

> <Parent_InChI>
InChI=1S/C23H16F7N5O2/c24-16-4-7-18(19(25)9-16)21(36,11-35-13-32-33-34-35)23(29,30)20-8-3-15(10-31-20)14-1-5-17(6-2-14)37-12-22(26,27)28/h1-10,13,36H,11-12H2/t21-/m0/s1

> <Parent_SMILES>
C1([H])=C(C([H])=C([H])C(=C1[H])OC([H])([H])C(F)(F)F)C2=C([H])N=C(C([H])=C2[H])C([C@](C([H])([H])N3C([H])=NN=N3)(C4=C([H])C([H])=C(C([H])=C4F)F)O[H])(F)F

$$$$
