
  CDK     1104240510

 29 32  0  0  0  0  0  0  0  0999 V2000
   -4.2248   -5.4452    0.0000 C   0  0  0  0  0  0  0  0  0  0  0  0
   -3.0661   -4.4925    0.0000 C   0  0  0  0  0  0  0  0  0  0  0  0
   -1.6144   -4.8699    0.0000 C   0  0  0  0  0  0  0  0  0  0  0  0
   -0.8069   -3.6058    0.0000 N   0  0  0  0  0  0  0  0  0  0  0  0
   -1.7595   -2.4472    0.0000 C   0  0  0  0  0  0  0  0  0  0  0  0
   -1.3174   -1.0138    0.0000 C   0  0  2  0  0  0  0  0  0  0  0  0
    0.1659   -0.7902    0.0000 C   0  0  0  0  0  0  0  0  0  0  0  0
    0.7139    0.6061    0.0000 C   0  0  0  0  0  0  0  0  0  0  0  0
    2.1971    0.8296    0.0000 C   0  0  0  0  0  0  0  0  0  0  0  0
    3.1323   -0.3431    0.0000 O   0  0  0  0  0  0  0  0  0  0  0  0
    2.7451    2.2259    0.0000 O   0  0  0  0  0  0  0  0  0  0  0  0
    4.2284    2.4495    0.0000 C   0  0  0  0  0  0  0  0  0  0  0  0
   -2.1624    0.2256    0.0000 N   0  0  0  0  0  0  0  0  0  0  0  0
   -3.6582    0.3377    0.0000 C   0  0  0  0  0  0  0  0  0  0  0  0
   -4.6784   -0.7619    0.0000 C   0  0  0  0  0  0  0  0  0  0  0  0
   -4.4549   -2.2452    0.0000 C   0  0  0  0  0  0  0  0  0  0  0  0
   -5.6276   -3.1804    0.0000 C   0  0  0  0  0  0  0  0  0  0  0  0
   -7.0239   -2.6324    0.0000 C   0  0  0  0  0  0  0  0  0  0  0  0
   -7.2475   -1.1491    0.0000 C   0  0  0  0  0  0  0  0  0  0  0  0
   -6.0747   -0.2139    0.0000 C   0  0  0  0  0  0  0  0  0  0  0  0
   -8.6438   -0.6011    0.0000 Br  0  0  0  0  0  0  0  0  0  0  0  0
   -3.1558   -2.9952    0.0000 N   0  0  0  0  0  0  0  0  0  0  0  0
   -4.2062    1.7340    0.0000 C   0  0  0  0  0  0  0  0  0  0  0  0
   -3.2706    2.9075    0.0000 N   0  0  0  0  0  0  0  0  0  0  0  0
   -3.8183    4.3049    0.0000 C   0  0  0  0  0  0  0  0  0  0  0  0
   -5.3015    4.5287    0.0000 C   0  0  0  0  0  0  0  0  0  0  0  0
   -6.2370    3.3551    0.0000 C   0  0  0  0  0  0  0  0  0  0  0  0
   -5.6894    1.9578    0.0000 C   0  0  0  0  0  0  0  0  0  0  0  0
   -5.8495    5.9250    0.0000 O   0  0  0  0  0  0  0  0  0  0  0  0
  1  2  1  0  0  0  0 
  2  3  2  0  0  0  0 
  3  4  1  0  0  0  0 
  4  5  2  0  0  0  0 
  5  6  1  0  0  0  0 
  6  7  1  1  0  0  0 
  7  8  1  0  0  0  0 
  8  9  1  0  0  0  0 
  9 10  2  0  0  0  0 
  9 11  1  0  0  0  0 
 11 12  1  0  0  0  0 
  6 13  1  0  0  0  0 
 13 14  2  0  0  0  0 
 14 15  1  0  0  0  0 
 15 16  2  0  0  0  0 
 16 17  1  0  0  0  0 
 17 18  2  0  0  0  0 
 18 19  1  0  0  0  0 
 19 20  2  0  0  0  0 
 15 20  1  0  0  0  0 
 19 21  1  0  0  0  0 
 16 22  1  0  0  0  0 
  2 22  1  0  0  0  0 
  5 22  1  0  0  0  0 
 14 23  1  0  0  0  0 
 23 24  2  0  0  0  0 
 24 25  1  0  0  0  0 
 25 26  2  0  0  0  0 
 26 27  1  0  0  0  0 
 27 28  2  0  0  0  0 
 23 28  1  0  0  0  0 
 26 29  1  0  0  0  0 
M  END
> <Rank>
1

> <Priority_score>
1.47

> <Reaction_type>
aromatic hydroxylation

> <Parent_ID>
1

> <Parent_InChI>
InChI=1S/C21H19BrN4O2/c1-13-12-24-21-17(7-9-19(27)28-2)25-20(16-5-3-4-10-23-16)15-11-14(22)6-8-18(15)26(13)21/h3-6,8,10-12,17H,7,9H2,1-2H3/t17-/m0/s1

> <Parent_SMILES>
C([H])([H])([H])C1=C([H])N=C2[C@]([H])(C([H])([H])C([H])([H])C(=O)OC([H])([H])[H])N=C(C3=C(C([H])=C([H])C(=C3[H])Br)N12)C4=NC([H])=C([H])C([H])=C4[H]

$$$$

  CDK     1104240510

 27 30  0  0  0  0  0  0  0  0999 V2000
    1.3706    4.1687    0.0000 C   0  0  0  0  0  0  0  0  0  0  0  0
   -0.1091    3.9229    0.0000 C   0  0  0  0  0  0  0  0  0  0  0  0
   -1.1777    4.9756    0.0000 C   0  0  0  0  0  0  0  0  0  0  0  0
   -2.5091    4.2847    0.0000 N   0  0  0  0  0  0  0  0  0  0  0  0
   -2.2634    2.8049    0.0000 C   0  0  0  0  0  0  0  0  0  0  0  0
   -3.3629    1.7847    0.0000 C   0  0  2  0  0  0  0  0  0  0  0  0
   -4.7592    2.3327    0.0000 C   0  0  0  0  0  0  0  0  0  0  0  0
   -5.9320    1.3975    0.0000 C   0  0  0  0  0  0  0  0  0  0  0  0
   -7.3283    1.9455    0.0000 C   0  0  0  0  0  0  0  0  0  0  0  0
   -7.5519    3.4287    0.0000 O   0  0  0  0  0  0  0  0  0  0  0  0
   -8.5011    1.0102    0.0000 O   0  0  0  0  0  0  0  0  0  0  0  0
   -3.2508    0.2889    0.0000 N   0  0  0  0  0  0  0  0  0  0  0  0
   -2.0115   -0.5561    0.0000 C   0  0  0  0  0  0  0  0  0  0  0  0
   -0.5781   -0.1140    0.0000 C   0  0  0  0  0  0  0  0  0  0  0  0
   -0.0301    1.2823    0.0000 C   0  0  0  0  0  0  0  0  0  0  0  0
    1.4531    1.5059    0.0000 C   0  0  0  0  0  0  0  0  0  0  0  0
    2.3884    0.3332    0.0000 C   0  0  0  0  0  0  0  0  0  0  0  0
    1.8404   -1.0632    0.0000 C   0  0  0  0  0  0  0  0  0  0  0  0
    0.3571   -1.2867    0.0000 C   0  0  0  0  0  0  0  0  0  0  0  0
    2.7756   -2.2359    0.0000 Br  0  0  0  0  0  0  0  0  0  0  0  0
   -0.7801    2.5814    0.0000 N   0  0  0  0  0  0  0  0  0  0  0  0
   -2.2350   -2.0393    0.0000 C   0  0  0  0  0  0  0  0  0  0  0  0
   -3.6320   -2.5879    0.0000 N   0  0  0  0  0  0  0  0  0  0  0  0
   -3.8564   -4.0718    0.0000 C   0  0  0  0  0  0  0  0  0  0  0  0
   -2.6839   -5.0073    0.0000 C   0  0  0  0  0  0  0  0  0  0  0  0
   -1.2869   -4.4587    0.0000 C   0  0  0  0  0  0  0  0  0  0  0  0
   -1.0625   -2.9748    0.0000 C   0  0  0  0  0  0  0  0  0  0  0  0
  1  2  1  0  0  0  0 
  2  3  2  0  0  0  0 
  3  4  1  0  0  0  0 
  4  5  2  0  0  0  0 
  5  6  1  0  0  0  0 
  6  7  1  1  0  0  0 
  7  8  1  0  0  0  0 
  8  9  1  0  0  0  0 
  9 10  2  0  0  0  0 
  9 11  1  0  0  0  0 
  6 12  1  0  0  0  0 
 12 13  2  0  0  0  0 
 13 14  1  0  0  0  0 
 14 15  2  0  0  0  0 
 15 16  1  0  0  0  0 
 16 17  2  0  0  0  0 
 17 18  1  0  0  0  0 
 18 19  2  0  0  0  0 
 14 19  1  0  0  0  0 
 18 20  1  0  0  0  0 
 15 21  1  0  0  0  0 
  2 21  1  0  0  0  0 
  5 21  1  0  0  0  0 
 13 22  1  0  0  0  0 
 22 23  2  0  0  0  0 
 23 24  1  0  0  0  0 
 24 25  2  0  0  0  0 
 25 26  1  0  0  0  0 
 26 27  2  0  0  0  0 
 22 27  1  0  0  0  0 
M  END
> <Rank>
2

> <Priority_score>
1.24

> <Reaction_type>
oxidative ether cleavage to one alcohol and one aldehyde/ketone

> <Parent_ID>
1

> <Parent_InChI>
InChI=1S/C21H19BrN4O2/c1-13-12-24-21-17(7-9-19(27)28-2)25-20(16-5-3-4-10-23-16)15-11-14(22)6-8-18(15)26(13)21/h3-6,8,10-12,17H,7,9H2,1-2H3/t17-/m0/s1

> <Parent_SMILES>
C([H])([H])([H])C1=C([H])N=C2[C@]([H])(C([H])([H])C([H])([H])C(=O)OC([H])([H])[H])N=C(C3=C(C([H])=C([H])C(=C3[H])Br)N12)C4=NC([H])=C([H])C([H])=C4[H]

$$$$

  CDK     1104240510

 29 32  0  0  0  0  0  0  0  0999 V2000
    1.2086    4.7733    0.0000 C   0  0  0  0  0  0  0  0  0  0  0  0
   -0.2712    4.5276    0.0000 C   0  0  0  0  0  0  0  0  0  0  0  0
   -1.3397    5.5803    0.0000 C   0  0  0  0  0  0  0  0  0  0  0  0
   -2.6711    4.8893    0.0000 N   0  0  0  0  0  0  0  0  0  0  0  0
   -2.4254    3.4096    0.0000 C   0  0  0  0  0  0  0  0  0  0  0  0
   -3.5249    2.3893    0.0000 C   0  0  2  0  0  0  0  0  0  0  0  0
   -4.9213    2.9373    0.0000 C   0  0  0  0  0  0  0  0  0  0  0  0
   -6.0940    2.0021    0.0000 C   0  0  0  0  0  0  0  0  0  0  0  0
   -7.4903    2.5501    0.0000 C   0  0  0  0  0  0  0  0  0  0  0  0
   -7.7139    4.0333    0.0000 O   0  0  0  0  0  0  0  0  0  0  0  0
   -8.6631    1.6149    0.0000 O   0  0  0  0  0  0  0  0  0  0  0  0
  -10.0594    2.1629    0.0000 C   0  0  0  0  0  0  0  0  0  0  0  0
  -11.2321    1.2276    0.0000 O   0  0  0  0  0  0  0  0  0  0  0  0
   -3.4129    0.8935    0.0000 N   0  0  0  0  0  0  0  0  0  0  0  0
   -2.1735    0.0485    0.0000 C   0  0  0  0  0  0  0  0  0  0  0  0
   -0.7401    0.4907    0.0000 C   0  0  0  0  0  0  0  0  0  0  0  0
   -0.1921    1.8870    0.0000 C   0  0  0  0  0  0  0  0  0  0  0  0
    1.2911    2.1105    0.0000 C   0  0  0  0  0  0  0  0  0  0  0  0
    2.2264    0.9378    0.0000 C   0  0  0  0  0  0  0  0  0  0  0  0
    1.6783   -0.4585    0.0000 C   0  0  0  0  0  0  0  0  0  0  0  0
    0.1951   -0.6821    0.0000 C   0  0  0  0  0  0  0  0  0  0  0  0
    2.6136   -1.6313    0.0000 Br  0  0  0  0  0  0  0  0  0  0  0  0
   -0.9421    3.1860    0.0000 N   0  0  0  0  0  0  0  0  0  0  0  0
   -2.3971   -1.4347    0.0000 C   0  0  0  0  0  0  0  0  0  0  0  0
   -3.7941   -1.9833    0.0000 N   0  0  0  0  0  0  0  0  0  0  0  0
   -4.0185   -3.4672    0.0000 C   0  0  0  0  0  0  0  0  0  0  0  0
   -2.8459   -4.4026    0.0000 C   0  0  0  0  0  0  0  0  0  0  0  0
   -1.4489   -3.8541    0.0000 C   0  0  0  0  0  0  0  0  0  0  0  0
   -1.2245   -2.3701    0.0000 C   0  0  0  0  0  0  0  0  0  0  0  0
  1  2  1  0  0  0  0 
  2  3  2  0  0  0  0 
  3  4  1  0  0  0  0 
  4  5  2  0  0  0  0 
  5  6  1  0  0  0  0 
  6  7  1  1  0  0  0 
  7  8  1  0  0  0  0 
  8  9  1  0  0  0  0 
  9 10  2  0  0  0  0 
  9 11  1  0  0  0  0 
 11 12  1  0  0  0  0 
 12 13  1  0  0  0  0 
  6 14  1  0  0  0  0 
 14 15  2  0  0  0  0 
 15 16  1  0  0  0  0 
 16 17  2  0  0  0  0 
 17 18  1  0  0  0  0 
 18 19  2  0  0  0  0 
 19 20  1  0  0  0  0 
 20 21  2  0  0  0  0 
 16 21  1  0  0  0  0 
 20 22  1  0  0  0  0 
 17 23  1  0  0  0  0 
  2 23  1  0  0  0  0 
  5 23  1  0  0  0  0 
 15 24  1  0  0  0  0 
 24 25  2  0  0  0  0 
 25 26  1  0  0  0  0 
 26 27  2  0  0  0  0 
 27 28  1  0  0  0  0 
 28 29  2  0  0  0  0 
 24 29  1  0  0  0  0 
M  END
> <Rank>
2

> <Priority_score>
1.24

> <Reaction_type>
aliphatic hydroxylation

> <Parent_ID>
1

> <Parent_InChI>
InChI=1S/C21H19BrN4O2/c1-13-12-24-21-17(7-9-19(27)28-2)25-20(16-5-3-4-10-23-16)15-11-14(22)6-8-18(15)26(13)21/h3-6,8,10-12,17H,7,9H2,1-2H3/t17-/m0/s1

> <Parent_SMILES>
C([H])([H])([H])C1=C([H])N=C2[C@]([H])(C([H])([H])C([H])([H])C(=O)OC([H])([H])[H])N=C(C3=C(C([H])=C([H])C(=C3[H])Br)N12)C4=NC([H])=C([H])C([H])=C4[H]

$$$$

  CDK     1104240510

 29 32  0  0  0  0  0  0  0  0999 V2000
    3.8971   -1.2227    0.0000 C   0  0  0  0  0  0  0  0  0  0  0  0
    2.3971   -1.2227    0.0000 O   0  0  0  0  0  0  0  0  0  0  0  0
    1.6471    0.0763    0.0000 C   0  0  0  0  0  0  0  0  0  0  0  0
    2.3971    1.3753    0.0000 O   0  0  0  0  0  0  0  0  0  0  0  0
    0.1471    0.0763    0.0000 C   0  0  0  0  0  0  0  0  0  0  0  0
   -0.6029    1.3753    0.0000 C   0  0  0  0  0  0  0  0  0  0  0  0
   -2.1029    1.3753    0.0000 C   0  0  1  0  0  0  0  0  0  0  0  0
   -2.7537    2.7268    0.0000 C   0  0  0  0  0  0  0  0  0  0  0  0
   -1.9844    4.0145    0.0000 N   0  0  0  0  0  0  0  0  0  0  0  0
   -2.9713    5.1441    0.0000 C   0  0  0  0  0  0  0  0  0  0  0  0
   -4.3506    4.5545    0.0000 C   0  0  0  0  0  0  0  0  0  0  0  0
   -5.6382    5.3239    0.0000 C   0  0  0  0  0  0  0  0  0  0  0  0
   -5.6158    6.8237    0.0000 O   0  0  0  0  0  0  0  0  0  0  0  0
   -4.2161    3.0606    0.0000 N   0  0  0  0  0  0  0  0  0  0  0  0
   -5.3889    2.1253    0.0000 C   0  0  0  0  0  0  0  0  0  0  0  0
   -5.3889    0.6253    0.0000 C   0  0  0  0  0  0  0  0  0  0  0  0
   -6.6879   -0.1247    0.0000 C   0  0  0  0  0  0  0  0  0  0  0  0
   -7.9869    0.6253    0.0000 C   0  0  0  0  0  0  0  0  0  0  0  0
   -7.9869    2.1253    0.0000 C   0  0  0  0  0  0  0  0  0  0  0  0
   -6.6879    2.8753    0.0000 C   0  0  0  0  0  0  0  0  0  0  0  0
   -9.2860   -0.1247    0.0000 Br  0  0  0  0  0  0  0  0  0  0  0  0
   -4.2161   -0.3099    0.0000 C   0  0  0  0  0  0  0  0  0  0  0  0
   -2.7537    0.0239    0.0000 N   0  0  0  0  0  0  0  0  0  0  0  0
   -4.5499   -1.7723    0.0000 C   0  0  0  0  0  0  0  0  0  0  0  0
   -5.9840   -2.2149    0.0000 N   0  0  0  0  0  0  0  0  0  0  0  0
   -6.3186   -3.6779    0.0000 C   0  0  0  0  0  0  0  0  0  0  0  0
   -5.2192   -4.6984    0.0000 C   0  0  0  0  0  0  0  0  0  0  0  0
   -3.7851   -4.2558    0.0000 C   0  0  0  0  0  0  0  0  0  0  0  0
   -3.4505   -2.7927    0.0000 C   0  0  0  0  0  0  0  0  0  0  0  0
  1  2  1  0  0  0  0 
  2  3  1  0  0  0  0 
  3  4  2  0  0  0  0 
  3  5  1  0  0  0  0 
  5  6  1  0  0  0  0 
  7  6  1  6  0  0  0 
  7  8  1  0  0  0  0 
  8  9  2  0  0  0  0 
  9 10  1  0  0  0  0 
 10 11  2  0  0  0  0 
 11 12  1  0  0  0  0 
 12 13  1  0  0  0  0 
 11 14  1  0  0  0  0 
  8 14  1  0  0  0  0 
 14 15  1  0  0  0  0 
 15 16  2  0  0  0  0 
 16 17  1  0  0  0  0 
 17 18  2  0  0  0  0 
 18 19  1  0  0  0  0 
 19 20  2  0  0  0  0 
 15 20  1  0  0  0  0 
 18 21  1  0  0  0  0 
 16 22  1  0  0  0  0 
 22 23  2  0  0  0  0 
  7 23  1  0  0  0  0 
 22 24  1  0  0  0  0 
 24 25  2  0  0  0  0 
 25 26  1  0  0  0  0 
 26 27  2  0  0  0  0 
 27 28  1  0  0  0  0 
 28 29  2  0  0  0  0 
 24 29  1  0  0  0  0 
M  END
> <Rank>
4

> <Priority_score>
1.06

> <Reaction_type>
aliphatic hydroxylation

> <Parent_ID>
1

> <Parent_InChI>
InChI=1S/C21H19BrN4O2/c1-13-12-24-21-17(7-9-19(27)28-2)25-20(16-5-3-4-10-23-16)15-11-14(22)6-8-18(15)26(13)21/h3-6,8,10-12,17H,7,9H2,1-2H3/t17-/m0/s1

> <Parent_SMILES>
C([H])([H])([H])C1=C([H])N=C2[C@]([H])(C([H])([H])C([H])([H])C(=O)OC([H])([H])[H])N=C(C3=C(C([H])=C([H])C(=C3[H])Br)N12)C4=NC([H])=C([H])C([H])=C4[H]

$$$$
