
  CDK     1104240458

 24 27  0  0  0  0  0  0  0  0999 V2000
   -3.5207    4.0198    0.0000 C   0  0  0  0  0  0  0  0  0  0  0  0
   -2.4118    3.0095    0.0000 C   0  0  0  0  0  0  0  0  0  0  0  0
   -2.7471    1.5428    0.0000 C   0  0  0  0  0  0  0  0  0  0  0  0
   -4.1777    1.1011    0.0000 C   0  0  0  0  0  0  0  0  0  0  0  0
   -5.2865    2.1113    0.0000 C   0  0  0  0  0  0  0  0  0  0  0  0
   -4.9586    3.5847    0.0000 C   0  0  0  0  0  0  0  0  0  0  0  0
   -4.5046   -0.3629    0.0000 Cl  0  0  0  0  0  0  0  0  0  0  0  0
   -1.6475    0.5225    0.0000 C   0  0  0  0  0  0  0  0  0  0  0  0
   -2.0896   -0.9108    0.0000 N   0  0  0  0  0  0  0  0  0  0  0  0
   -1.2447   -2.1502    0.0000 C   0  0  0  0  0  0  0  0  0  0  0  0
    0.2512   -2.2623    0.0000 C   0  0  0  0  0  0  0  0  0  0  0  0
    0.9816   -3.5724    0.0000 N   0  0  0  0  0  0  0  0  0  0  0  0
    2.4534   -3.2825    0.0000 N   0  0  0  0  0  0  0  0  0  0  0  0
    2.6324   -1.7932    0.0000 C   0  0  0  0  0  0  0  0  0  0  0  0
    3.9426   -1.0627    0.0000 C   0  0  0  0  0  0  0  0  0  0  0  0
    5.2302   -1.8321    0.0000 O   0  0  0  0  0  0  0  0  0  0  0  0
    1.2714   -1.1627    0.0000 N   0  0  0  0  0  0  0  0  0  0  0  0
    1.0478    0.3206    0.0000 C   0  0  0  0  0  0  0  0  0  0  0  0
   -0.2512    1.0706    0.0000 C   0  0  0  0  0  0  0  0  0  0  0  0
   -0.2512    2.5706    0.0000 C   0  0  0  0  0  0  0  0  0  0  0  0
    1.0478    3.3206    0.0000 C   0  0  0  0  0  0  0  0  0  0  0  0
    2.3469    2.5706    0.0000 C   0  0  0  0  0  0  0  0  0  0  0  0
    2.3469    1.0706    0.0000 C   0  0  0  0  0  0  0  0  0  0  0  0
    1.0478    4.8206    0.0000 Br  0  0  0  0  0  0  0  0  0  0  0  0
  1  2  2  0  0  0  0 
  2  3  1  0  0  0  0 
  3  4  2  0  0  0  0 
  4  5  1  0  0  0  0 
  5  6  2  0  0  0  0 
  1  6  1  0  0  0  0 
  4  7  1  0  0  0  0 
  3  8  1  0  0  0  0 
  8  9  2  0  0  0  0 
  9 10  1  0  0  0  0 
 10 11  1  0  0  0  0 
 11 12  2  0  0  0  0 
 12 13  1  0  0  0  0 
 13 14  2  0  0  0  0 
 14 15  1  0  0  0  0 
 15 16  1  0  0  0  0 
 14 17  1  0  0  0  0 
 11 17  1  0  0  0  0 
 17 18  1  0  0  0  0 
 18 19  2  0  0  0  0 
  8 19  1  0  0  0  0 
 19 20  1  0  0  0  0 
 20 21  2  0  0  0  0 
 21 22  1  0  0  0  0 
 22 23  2  0  0  0  0 
 18 23  1  0  0  0  0 
 21 24  1  0  0  0  0 
M  END
> <Rank>
1

> <Priority_score>
1.96

> <Reaction_type>
aliphatic hydroxylation

> <Parent_ID>
1

> <Parent_InChI>
InChI=1S/C17H12BrClN4/c1-10-21-22-16-9-20-17(12-4-2-3-5-14(12)19)13-8-11(18)6-7-15(13)23(10)16/h2-8H,9H2,1H3

> <Parent_SMILES>
C([H])([H])([H])C1=NN=C2C([H])([H])N=C(C3=C(C([H])=C([H])C([H])=C3[H])Cl)C4=C(C([H])=C([H])C(=C4[H])Br)N12

$$$$

  CDK     1104240458

 24 26  0  0  0  0  0  0  0  0999 V2000
   -7.6735   -3.8943    0.0000 C   0  0  0  0  0  0  0  0  0  0  0  0
   -6.3029   -4.5038    0.0000 C   0  0  0  0  0  0  0  0  0  0  0  0
   -5.9913   -5.9636    0.0000 N   0  0  0  0  0  0  0  0  0  0  0  0
   -4.4984   -6.1293    0.0000 N   0  0  0  0  0  0  0  0  0  0  0  0
   -3.8955   -4.7536    0.0000 C   0  0  0  0  0  0  0  0  0  0  0  0
   -2.4291   -4.4380    0.0000 C   0  0  0  0  0  0  0  0  0  0  0  0
   -1.4226   -5.5502    0.0000 O   0  0  0  0  0  0  0  0  0  0  0  0
   -5.0039   -3.7538    0.0000 N   0  0  0  0  0  0  0  0  0  0  0  0
   -4.7961   -1.7847    0.0000 C   0  0  0  0  0  0  0  0  0  0  0  0
   -6.0097   -0.9018    0.0000 C   0  0  0  0  0  0  0  0  0  0  0  0
   -5.8529    0.5908    0.0000 C   0  0  0  0  0  0  0  0  0  0  0  0
   -4.4824    1.2005    0.0000 C   0  0  0  0  0  0  0  0  0  0  0  0
   -3.2687    0.3176    0.0000 C   0  0  0  0  0  0  0  0  0  0  0  0
   -3.4256   -1.1750    0.0000 C   0  0  0  0  0  0  0  0  0  0  0  0
   -2.2121   -2.0568    0.0000 C   0  0  0  0  0  0  0  0  0  0  0  0
   -2.3691   -3.5486    0.0000 N   0  0  0  0  0  0  0  0  0  0  0  0
   -0.8418   -1.4469    0.0000 C   0  0  0  0  0  0  0  0  0  0  0  0
   -0.6855    0.0422    0.0000 C   0  0  0  0  0  0  0  0  0  0  0  0
    0.6793    0.6645    0.0000 C   0  0  0  0  0  0  0  0  0  0  0  0
    1.9052   -0.2162    0.0000 C   0  0  0  0  0  0  0  0  0  0  0  0
    1.7399   -1.7094    0.0000 C   0  0  0  0  0  0  0  0  0  0  0  0
    0.3751   -2.3318    0.0000 C   0  0  0  0  0  0  0  0  0  0  0  0
   -1.9031    0.9183    0.0000 Cl  0  0  0  0  0  0  0  0  0  0  0  0
   -4.3250    2.6922    0.0000 Br  0  0  0  0  0  0  0  0  0  0  0  0
  1  2  1  0  0  0  0 
  2  3  2  0  0  0  0 
  3  4  1  0  0  0  0 
  4  5  2  0  0  0  0 
  5  6  1  0  0  0  0 
  6  7  2  0  0  0  0 
  5  8  1  0  0  0  0 
  2  8  1  0  0  0  0 
  8  9  1  0  0  0  0 
  9 10  2  0  0  0  0 
 10 11  1  0  0  0  0 
 11 12  2  0  0  0  0 
 12 13  1  0  0  0  0 
 13 14  2  0  0  0  0 
  9 14  1  0  0  0  0 
 14 15  1  0  0  0  0 
 15 16  2  0  0  0  0 
 15 17  1  0  0  0  0 
 17 18  2  0  0  0  0 
 18 19  1  0  0  0  0 
 19 20  2  0  0  0  0 
 20 21  1  0  0  0  0 
 21 22  2  0  0  0  0 
 17 22  1  0  0  0  0 
 18 23  1  0  0  0  0 
 12 24  1  0  0  0  0 
M  END
> <Rank>
2

> <Priority_score>
1.83

> <Reaction_type>
N-dealkylation

> <Parent_ID>
1

> <Parent_InChI>
InChI=1S/C17H12BrClN4/c1-10-21-22-16-9-20-17(12-4-2-3-5-14(12)19)13-8-11(18)6-7-15(13)23(10)16/h2-8H,9H2,1H3

> <Parent_SMILES>
C([H])([H])([H])C1=NN=C2C([H])([H])N=C(C3=C(C([H])=C([H])C([H])=C3[H])Cl)C4=C(C([H])=C([H])C(=C4[H])Br)N12

$$$$

  CDK     1104240458

 24 27  0  0  0  0  0  0  0  0999 V2000
   -5.6453    2.3835    0.0000 C   0  0  0  0  0  0  0  0  0  0  0  0
   -5.3996    0.9037    0.0000 C   0  0  0  0  0  0  0  0  0  0  0  0
   -6.4523   -0.1648    0.0000 N   0  0  0  0  0  0  0  0  0  0  0  0
   -5.7613   -1.4962    0.0000 N   0  0  0  0  0  0  0  0  0  0  0  0
   -4.2816   -1.2505    0.0000 C   0  0  0  0  0  0  0  0  0  0  0  0
   -3.2613   -2.3501    0.0000 C   0  0  0  0  0  0  0  0  0  0  0  0
   -1.7655   -2.2380    0.0000 N   0  0  0  0  0  0  0  0  0  0  0  0
   -0.9205   -0.9986    0.0000 C   0  0  0  0  0  0  0  0  0  0  0  0
    0.5627   -1.2222    0.0000 C   0  0  0  0  0  0  0  0  0  0  0  0
    1.4959   -0.0513    0.0000 C   0  0  0  0  0  0  0  0  0  0  0  0
    2.9811   -0.2614    0.0000 C   0  0  0  0  0  0  0  0  0  0  0  0
    3.5402   -1.6635    0.0000 C   0  0  0  0  0  0  0  0  0  0  0  0
    2.5972   -2.8330    0.0000 C   0  0  0  0  0  0  0  0  0  0  0  0
    1.1120   -2.6229    0.0000 C   0  0  0  0  0  0  0  0  0  0  0  0
    0.9413    1.3424    0.0000 Cl  0  0  0  0  0  0  0  0  0  0  0  0
   -1.3627    0.4347    0.0000 C   0  0  0  0  0  0  0  0  0  0  0  0
   -2.7590    0.9827    0.0000 C   0  0  0  0  0  0  0  0  0  0  0  0
   -2.9825    2.4660    0.0000 C   0  0  0  0  0  0  0  0  0  0  0  0
   -1.8098    3.4012    0.0000 C   0  0  0  0  0  0  0  0  0  0  0  0
   -0.4135    2.8532    0.0000 C   0  0  0  0  0  0  0  0  0  0  0  0
   -0.1899    1.3700    0.0000 C   0  0  0  0  0  0  0  0  0  0  0  0
    0.7593    3.7885    0.0000 Br  0  0  0  0  0  0  0  0  0  0  0  0
   -4.0580    0.2327    0.0000 N   0  0  0  0  0  0  0  0  0  0  0  0
   -3.8093   -3.7464    0.0000 O   0  0  0  0  0  0  0  0  0  0  0  0
  1  2  1  0  0  0  0 
  2  3  2  0  0  0  0 
  3  4  1  0  0  0  0 
  4  5  2  0  0  0  0 
  5  6  1  0  0  0  0 
  6  7  1  0  0  0  0 
  7  8  2  0  0  0  0 
  8  9  1  0  0  0  0 
  9 10  2  0  0  0  0 
 10 11  1  0  0  0  0 
 11 12  2  0  0  0  0 
 12 13  1  0  0  0  0 
 13 14  2  0  0  0  0 
  9 14  1  0  0  0  0 
 10 15  1  0  0  0  0 
  8 16  1  0  0  0  0 
 16 17  2  0  0  0  0 
 17 18  1  0  0  0  0 
 18 19  2  0  0  0  0 
 19 20  1  0  0  0  0 
 20 21  2  0  0  0  0 
 16 21  1  0  0  0  0 
 20 22  1  0  0  0  0 
 17 23  1  0  0  0  0 
  2 23  1  0  0  0  0 
  5 23  1  0  0  0  0 
  6 24  1  0  0  0  0 
M  END
> <Rank>
2

> <Priority_score>
1.83

> <Reaction_type>
aliphatic hydroxylation

> <Parent_ID>
1

> <Parent_InChI>
InChI=1S/C17H12BrClN4/c1-10-21-22-16-9-20-17(12-4-2-3-5-14(12)19)13-8-11(18)6-7-15(13)23(10)16/h2-8H,9H2,1H3

> <Parent_SMILES>
C([H])([H])([H])C1=NN=C2C([H])([H])N=C(C3=C(C([H])=C([H])C([H])=C3[H])Cl)C4=C(C([H])=C([H])C(=C4[H])Br)N12

$$$$

  CDK     1104240458

 24 27  0  0  0  0  0  0  0  0999 V2000
   -5.9826   -2.4094    0.0000 C   0  0  0  0  0  0  0  0  0  0  0  0
   -4.5782   -2.9365    0.0000 C   0  0  0  0  0  0  0  0  0  0  0  0
   -4.1792   -4.3824    0.0000 N   0  0  0  0  0  0  0  0  0  0  0  0
   -2.6807   -4.4497    0.0000 N   0  0  0  0  0  0  0  0  0  0  0  0
   -2.1536   -3.0454    0.0000 C   0  0  0  0  0  0  0  0  0  0  0  0
   -0.6912   -2.7116    0.0000 C   0  0  0  0  0  0  0  0  0  0  0  0
   -0.0404   -1.3602    0.0000 N   0  0  0  0  0  0  0  0  0  0  0  0
   -0.6912   -0.0087    0.0000 C   0  0  0  0  0  0  0  0  0  0  0  0
    0.2440    1.1640    0.0000 C   0  0  0  0  0  0  0  0  0  0  0  0
   -0.3034    2.5576    0.0000 C   0  0  0  0  0  0  0  0  0  0  0  0
    0.6211    3.7388    0.0000 C   0  0  0  0  0  0  0  0  0  0  0  0
    2.1150    3.5220    0.0000 C   0  0  0  0  0  0  0  0  0  0  0  0
    2.6562    2.1206    0.0000 C   0  0  0  0  0  0  0  0  0  0  0  0
    1.7317    0.9394    0.0000 C   0  0  0  0  0  0  0  0  0  0  0  0
   -1.7877    2.7742    0.0000 Cl  0  0  0  0  0  0  0  0  0  0  0  0
   -2.1536    0.3251    0.0000 C   0  0  0  0  0  0  0  0  0  0  0  0
   -3.3264   -0.6102    0.0000 C   0  0  0  0  0  0  0  0  0  0  0  0
   -4.7227   -0.0621    0.0000 C   0  0  0  0  0  0  0  0  0  0  0  0
   -4.9462    1.4211    0.0000 C   0  0  0  0  0  0  0  0  0  0  0  0
   -3.7735    2.3563    0.0000 C   0  0  0  0  0  0  0  0  0  0  0  0
   -2.3772    1.8083    0.0000 C   0  0  0  0  0  0  0  0  0  0  0  0
   -3.9971    3.8396    0.0000 Br  0  0  0  0  0  0  0  0  0  0  0  0
   -3.3264   -2.1102    0.0000 N   0  0  0  0  0  0  0  0  0  0  0  0
    1.4596   -1.3602    0.0000 O   0  0  0  0  0  0  0  0  0  0  0  0
  1  2  1  0  0  0  0 
  2  3  2  0  0  0  0 
  3  4  1  0  0  0  0 
  4  5  2  0  0  0  0 
  5  6  1  0  0  0  0 
  6  7  1  0  0  0  0 
  7  8  2  0  0  0  0 
  8  9  1  0  0  0  0 
  9 10  2  0  0  0  0 
 10 11  1  0  0  0  0 
 11 12  2  0  0  0  0 
 12 13  1  0  0  0  0 
 13 14  2  0  0  0  0 
  9 14  1  0  0  0  0 
 10 15  1  0  0  0  0 
  8 16  1  0  0  0  0 
 16 17  2  0  0  0  0 
 17 18  1  0  0  0  0 
 18 19  2  0  0  0  0 
 19 20  1  0  0  0  0 
 20 21  2  0  0  0  0 
 16 21  1  0  0  0  0 
 20 22  1  0  0  0  0 
 17 23  1  0  0  0  0 
  2 23  1  0  0  0  0 
  5 23  1  0  0  0  0 
  7 24  1  0  0  0  0 
M  CHG  1   7   1
M  CHG  1  24  -1
M  END
> <Rank>
2

> <Priority_score>
1.83

> <Reaction_type>
N-oxidation

> <Parent_ID>
1

> <Parent_InChI>
InChI=1S/C17H12BrClN4/c1-10-21-22-16-9-20-17(12-4-2-3-5-14(12)19)13-8-11(18)6-7-15(13)23(10)16/h2-8H,9H2,1H3

> <Parent_SMILES>
C([H])([H])([H])C1=NN=C2C([H])([H])N=C(C3=C(C([H])=C([H])C([H])=C3[H])Cl)C4=C(C([H])=C([H])C(=C4[H])Br)N12

$$$$
