
  CDK     1104240453

 29 31  0  0  0  0  0  0  0  0999 V2000
    2.5989    1.5002    0.0000 C   0  0  0  0  0  0  0  0  0  0  0  0
    1.3000    0.7500    0.0000 C   0  0  0  0  0  0  0  0  0  0  0  0
    0.0000    1.5000    0.0000 C   0  0  0  0  0  0  0  0  0  0  0  0
   -1.3000    0.7500    0.0000 C   0  0  0  0  0  0  0  0  0  0  0  0
   -1.3000   -0.7500    0.0000 C   0  0  0  0  0  0  0  0  0  0  0  0
    0.0000   -1.5000    0.0000 C   0  0  0  0  0  0  0  0  0  0  0  0
    1.3000   -0.7500    0.0000 C   0  0  0  0  0  0  0  0  0  0  0  0
   -2.5989   -1.5002    0.0000 S   0  0  0  0  0  0  0  0  0  0  0  0
   -3.5629   -2.6494    0.0000 O   0  0  0  0  0  0  0  0  0  0  0  0
   -1.6346   -2.6491    0.0000 O   0  0  0  0  0  0  0  0  0  0  0  0
   -3.8981   -0.7504    0.0000 N   0  0  0  0  0  0  0  0  0  0  0  0
   -5.1970   -1.5006    0.0000 C   0  0  0  0  0  0  0  0  0  0  0  0
   -5.1970   -3.0015    0.0000 C   0  0  0  0  0  0  0  0  0  0  0  0
   -6.4963   -3.7527    0.0000 C   0  0  0  0  0  0  0  0  0  0  0  0
   -7.7956   -3.0031    0.0000 C   0  0  0  0  0  0  0  0  0  0  0  0
   -7.7956   -1.5023    0.0000 C   0  0  0  0  0  0  0  0  0  0  0  0
   -6.4963   -0.7510    0.0000 C   0  0  0  0  0  0  0  0  0  0  0  0
   -9.0945   -3.7533    0.0000 C   0  0  0  0  0  0  0  0  0  0  0  0
   -9.0942   -5.2533    0.0000 O   0  0  0  0  0  0  0  0  0  0  0  0
  -10.3936   -3.0035    0.0000 C   0  0  0  0  0  0  0  0  0  0  0  0
  -11.6925   -3.7537    0.0000 C   0  0  0  0  0  0  0  0  0  0  0  0
  -12.9917   -3.0040    0.0000 C   0  0  0  0  0  0  0  0  0  0  0  0
  -12.9915   -1.5031    0.0000 C   0  0  0  0  0  0  0  0  0  0  0  0
  -14.2906   -0.7533    0.0000 C   0  0  0  0  0  0  0  0  0  0  0  0
  -15.5900   -1.5044    0.0000 C   0  0  0  0  0  0  0  0  0  0  0  0
  -15.5903   -3.0052    0.0000 C   0  0  0  0  0  0  0  0  0  0  0  0
  -14.2911   -3.7550    0.0000 C   0  0  0  0  0  0  0  0  0  0  0  0
  -16.8893   -3.7552    0.0000 O   0  0  0  0  0  0  0  0  0  0  0  0
  -16.8892   -0.7546    0.0000 O   0  0  0  0  0  0  0  0  0  0  0  0
  1  2  1  0  0  0  0 
  2  3  2  0  0  0  0 
  3  4  1  0  0  0  0 
  4  5  2  0  0  0  0 
  5  6  1  0  0  0  0 
  6  7  2  0  0  0  0 
  2  7  1  0  0  0  0 
  5  8  1  0  0  0  0 
  8  9  2  0  0  0  0 
  8 10  2  0  0  0  0 
  8 11  1  0  0  0  0 
 11 12  1  0  0  0  0 
 12 13  2  0  0  0  0 
 13 14  1  0  0  0  0 
 14 15  2  0  0  0  0 
 15 16  1  0  0  0  0 
 16 17  2  0  0  0  0 
 12 17  1  0  0  0  0 
 15 18  1  0  0  0  0 
 18 19  2  0  0  0  0 
 18 20  1  4  0  0  0 
 20 21  2  0  0  0  0 
 21 22  1  0  0  0  0 
 22 23  2  0  0  0  0 
 23 24  1  0  0  0  0 
 24 25  2  0  0  0  0 
 25 26  1  0  0  0  0 
 26 27  2  0  0  0  0 
 22 27  1  0  0  0  0 
 26 28  1  0  0  0  0 
 25 29  1  0  0  0  0 
M  END
> <Rank>
1

> <Priority_score>
3.7199999999999998

> <Reaction_type>
aromatic hydroxylation

> <Parent_ID>
1

> <Parent_InChI>
InChI=1S/C22H19NO4S/c1-16-2-13-21(14-3-16)28(26,27)23-19-9-7-18(8-10-19)22(25)15-6-17-4-11-20(24)12-5-17/h2-15,23-24H,1H3/b15-6+

> <Parent_SMILES>
C([H])([H])([H])C1=C([H])C([H])=C(C([H])=C1[H])S(=O)(=O)N([H])C2=C([H])C([H])=C(C([H])=C2[H])C(=O)/C(/[H])=C(\[H])/C3=C([H])C([H])=C(C([H])=C3[H])O[H]

$$$$

  CDK     1104240453

 29 31  0  0  0  0  0  0  0  0999 V2000
   -2.5989    1.5002    0.0000 C   0  0  0  0  0  0  0  0  0  0  0  0
   -1.3000    0.7500    0.0000 C   0  0  0  0  0  0  0  0  0  0  0  0
    0.0000    1.5000    0.0000 C   0  0  0  0  0  0  0  0  0  0  0  0
    1.3000    0.7500    0.0000 C   0  0  0  0  0  0  0  0  0  0  0  0
    1.3000   -0.7500    0.0000 C   0  0  0  0  0  0  0  0  0  0  0  0
    0.0000   -1.5000    0.0000 C   0  0  0  0  0  0  0  0  0  0  0  0
   -1.3000   -0.7500    0.0000 C   0  0  0  0  0  0  0  0  0  0  0  0
   -2.5989   -1.5002    0.0000 O   0  0  0  0  0  0  0  0  0  0  0  0
    2.5989    1.5002    0.0000 S   0  0  0  0  0  0  0  0  0  0  0  0
    3.5629    2.6494    0.0000 O   0  0  0  0  0  0  0  0  0  0  0  0
    1.6346    2.6491    0.0000 O   0  0  0  0  0  0  0  0  0  0  0  0
    3.8981    0.7504    0.0000 N   0  0  0  0  0  0  0  0  0  0  0  0
    5.1970    1.5006    0.0000 C   0  0  0  0  0  0  0  0  0  0  0  0
    5.1970    3.0015    0.0000 C   0  0  0  0  0  0  0  0  0  0  0  0
    6.4963    3.7527    0.0000 C   0  0  0  0  0  0  0  0  0  0  0  0
    7.7956    3.0031    0.0000 C   0  0  0  0  0  0  0  0  0  0  0  0
    7.7956    1.5023    0.0000 C   0  0  0  0  0  0  0  0  0  0  0  0
    6.4963    0.7510    0.0000 C   0  0  0  0  0  0  0  0  0  0  0  0
    9.0945    3.7533    0.0000 C   0  0  0  0  0  0  0  0  0  0  0  0
    9.0942    5.2533    0.0000 O   0  0  0  0  0  0  0  0  0  0  0  0
   10.3936    3.0035    0.0000 C   0  0  0  0  0  0  0  0  0  0  0  0
   11.6925    3.7537    0.0000 C   0  0  0  0  0  0  0  0  0  0  0  0
   12.9917    3.0040    0.0000 C   0  0  0  0  0  0  0  0  0  0  0  0
   14.2869    3.7605    0.0000 C   0  0  0  0  0  0  0  0  0  0  0  0
   15.5751    3.0422    0.0000 C   0  0  0  0  0  0  0  0  0  0  0  0
   15.6084    1.4982    0.0000 C   0  0  0  0  0  0  0  0  0  0  0  0
   14.3132    0.7417    0.0000 C   0  0  0  0  0  0  0  0  0  0  0  0
   12.9847    1.5290    0.0000 C   0  0  0  0  0  0  0  0  0  0  0  0
   16.9173    0.7656    0.0000 O   0  0  0  0  0  0  0  0  0  0  0  0
  1  2  1  0  0  0  0 
  2  3  2  0  0  0  0 
  3  4  1  0  0  0  0 
  4  5  2  0  0  0  0 
  5  6  1  0  0  0  0 
  6  7  2  0  0  0  0 
  2  7  1  0  0  0  0 
  7  8  1  0  0  0  0 
  4  9  1  0  0  0  0 
  9 10  2  0  0  0  0 
  9 11  2  0  0  0  0 
  9 12  1  0  0  0  0 
 12 13  1  0  0  0  0 
 13 14  2  0  0  0  0 
 14 15  1  0  0  0  0 
 15 16  2  0  0  0  0 
 16 17  1  0  0  0  0 
 17 18  2  0  0  0  0 
 13 18  1  0  0  0  0 
 16 19  1  0  0  0  0 
 19 20  2  0  0  0  0 
 19 21  1  4  0  0  0 
 21 22  2  0  0  0  0 
 22 23  1  0  0  0  0 
 23 24  2  0  0  0  0 
 24 25  1  0  0  0  0 
 25 26  2  0  0  0  0 
 26 27  1  0  0  0  0 
 27 28  2  0  0  0  0 
 23 28  1  0  0  0  0 
 26 29  1  0  0  0  0 
M  END
> <Rank>
2

> <Priority_score>
3.66

> <Reaction_type>
aromatic hydroxylation with nih shift

> <Parent_ID>
1

> <Parent_InChI>
InChI=1S/C22H19NO4S/c1-16-2-13-21(14-3-16)28(26,27)23-19-9-7-18(8-10-19)22(25)15-6-17-4-11-20(24)12-5-17/h2-15,23-24H,1H3/b15-6+

> <Parent_SMILES>
C([H])([H])([H])C1=C([H])C([H])=C(C([H])=C1[H])S(=O)(=O)N([H])C2=C([H])C([H])=C(C([H])=C2[H])C(=O)/C(/[H])=C(\[H])/C3=C([H])C([H])=C(C([H])=C3[H])O[H]

$$$$

  CDK     1104240453

 29 31  0  0  0  0  0  0  0  0999 V2000
    8.5735    9.2843    0.0000 C   0  0  0  0  0  0  0  0  0  0  0  0
    8.5881   10.7591    0.0000 C   0  0  0  0  0  0  0  0  0  0  0  0
    9.8871   11.5091    0.0000 C   0  0  0  0  0  0  0  0  0  0  0  0
   11.1716   10.7843    0.0000 C   0  0  0  0  0  0  0  0  0  0  0  0
   11.1971    9.2401    0.0000 C   0  0  0  0  0  0  0  0  0  0  0  0
    9.8981    8.4901    0.0000 C   0  0  0  0  0  0  0  0  0  0  0  0
   12.5023    8.5009    0.0000 O   0  0  0  0  0  0  0  0  0  0  0  0
    7.2927   11.5155    0.0000 C   0  0  0  0  0  0  0  0  0  0  0  0
    5.9900   10.7719    0.0000 C   0  0  0  0  0  0  0  0  0  0  0  0
    4.6947   11.5283    0.0000 C   0  0  0  0  0  0  0  0  0  0  0  0
    4.7021   13.0283    0.0000 O   0  0  0  0  0  0  0  0  0  0  0  0
    3.3920   10.7847    0.0000 C   0  0  0  0  0  0  0  0  0  0  0  0
    2.0965   11.5409    0.0000 C   0  0  0  0  0  0  0  0  0  0  0  0
    0.7934   10.7962    0.0000 C   0  0  0  0  0  0  0  0  0  0  0  0
    0.7858    9.2954    0.0000 C   0  0  0  0  0  0  0  0  0  0  0  0
    2.0813    8.5392    0.0000 C   0  0  0  0  0  0  0  0  0  0  0  0
    3.3843    9.2839    0.0000 C   0  0  0  0  0  0  0  0  0  0  0  0
   -0.5169    8.5518    0.0000 N   0  0  0  0  0  0  0  0  0  0  0  0
   -1.8122    9.3082    0.0000 S   0  0  0  0  0  0  0  0  0  0  0  0
   -0.8424   10.4525    0.0000 O   0  0  0  0  0  0  0  0  0  0  0  0
   -2.7708   10.4620    0.0000 O   0  0  0  0  0  0  0  0  0  0  0  0
   -3.1150    8.5646    0.0000 C   0  0  0  0  0  0  0  0  0  0  0  0
   -3.1226    7.0646    0.0000 C   0  0  0  0  0  0  0  0  0  0  0  0
   -4.4264    6.3212    0.0000 C   0  0  0  0  0  0  0  0  0  0  0  0
   -5.7225    7.0778    0.0000 C   0  0  0  0  0  0  0  0  0  0  0  0
   -5.7149    8.5778    0.0000 C   0  0  0  0  0  0  0  0  0  0  0  0
   -4.4111    9.3212    0.0000 C   0  0  0  0  0  0  0  0  0  0  0  0
   -7.0253    6.3342    0.0000 C   0  0  0  0  0  0  0  0  0  0  0  0
   -8.3206    7.0906    0.0000 O   0  0  0  0  0  0  0  0  0  0  0  0
  1  2  2  0  0  0  0 
  2  3  1  0  0  0  0 
  3  4  2  0  0  0  0 
  4  5  1  0  0  0  0 
  5  6  2  0  0  0  0 
  1  6  1  0  0  0  0 
  5  7  1  0  0  0  0 
  2  8  1  0  0  0  0 
  8  9  2  0  0  0  0 
  9 10  1  4  0  0  0 
 10 11  2  0  0  0  0 
 10 12  1  0  0  0  0 
 12 13  2  0  0  0  0 
 13 14  1  0  0  0  0 
 14 15  2  0  0  0  0 
 15 16  1  0  0  0  0 
 16 17  2  0  0  0  0 
 12 17  1  0  0  0  0 
 15 18  1  0  0  0  0 
 18 19  1  0  0  0  0 
 19 20  2  0  0  0  0 
 19 21  2  0  0  0  0 
 19 22  1  0  0  0  0 
 22 23  2  0  0  0  0 
 23 24  1  0  0  0  0 
 24 25  2  0  0  0  0 
 25 26  1  0  0  0  0 
 26 27  2  0  0  0  0 
 22 27  1  0  0  0  0 
 25 28  1  0  0  0  0 
 28 29  1  0  0  0  0 
M  END
> <Rank>
2

> <Priority_score>
3.66

> <Reaction_type>
aliphatic hydroxylation

> <Parent_ID>
1

> <Parent_InChI>
InChI=1S/C22H19NO4S/c1-16-2-13-21(14-3-16)28(26,27)23-19-9-7-18(8-10-19)22(25)15-6-17-4-11-20(24)12-5-17/h2-15,23-24H,1H3/b15-6+

> <Parent_SMILES>
C([H])([H])([H])C1=C([H])C([H])=C(C([H])=C1[H])S(=O)(=O)N([H])C2=C([H])C([H])=C(C([H])=C2[H])C(=O)/C(/[H])=C(\[H])/C3=C([H])C([H])=C(C([H])=C3[H])O[H]

$$$$

  CDK     1104240453

 29 31  0  0  0  0  0  0  0  0999 V2000
  -17.4246   -5.2533    0.0000 C   0  0  0  0  0  0  0  0  0  0  0  0
  -16.1256   -4.5031    0.0000 C   0  0  0  0  0  0  0  0  0  0  0  0
  -14.8256   -5.2531    0.0000 C   0  0  0  0  0  0  0  0  0  0  0  0
  -13.5256   -4.5031    0.0000 C   0  0  0  0  0  0  0  0  0  0  0  0
  -13.5256   -3.0031    0.0000 C   0  0  0  0  0  0  0  0  0  0  0  0
  -14.8256   -2.2531    0.0000 C   0  0  0  0  0  0  0  0  0  0  0  0
  -16.1256   -3.0031    0.0000 C   0  0  0  0  0  0  0  0  0  0  0  0
  -12.2267   -2.2529    0.0000 S   0  0  0  0  0  0  0  0  0  0  0  0
  -11.2627   -1.1037    0.0000 O   0  0  0  0  0  0  0  0  0  0  0  0
  -13.1911   -1.1040    0.0000 O   0  0  0  0  0  0  0  0  0  0  0  0
  -10.9276   -3.0027    0.0000 N   0  0  0  0  0  0  0  0  0  0  0  0
   -9.6286   -2.2525    0.0000 C   0  0  0  0  0  0  0  0  0  0  0  0
   -9.6286   -0.7517    0.0000 C   0  0  0  0  0  0  0  0  0  0  0  0
   -8.3294   -0.0004    0.0000 C   0  0  0  0  0  0  0  0  0  0  0  0
   -7.0301   -0.7500    0.0000 C   0  0  0  0  0  0  0  0  0  0  0  0
   -7.0301   -2.2508    0.0000 C   0  0  0  0  0  0  0  0  0  0  0  0
   -8.3294   -3.0021    0.0000 C   0  0  0  0  0  0  0  0  0  0  0  0
   -5.7312    0.0002    0.0000 C   0  0  0  0  0  0  0  0  0  0  0  0
   -5.7314    1.5002    0.0000 O   0  0  0  0  0  0  0  0  0  0  0  0
   -4.4320   -0.7496    0.0000 C   0  0  0  0  0  0  0  0  0  0  0  0
   -3.1331    0.0006    0.0000 C   0  0  0  0  0  0  0  0  0  0  0  0
   -1.8339   -0.7492    0.0000 C   0  0  0  0  0  0  0  0  0  0  0  0
   -1.3207    0.6612    0.0000 C   0  0  0  0  0  0  0  0  0  0  0  0
    0.1572    0.9228    0.0000 C   0  0  0  0  0  0  0  0  0  0  0  0
    1.1218   -0.2259    0.0000 C   0  0  0  0  0  0  0  0  0  0  0  0
    2.5989    0.0349    0.0000 O   0  0  0  0  0  0  0  0  0  0  0  0
    0.6085   -1.6362    0.0000 C   0  0  0  0  0  0  0  0  0  0  0  0
   -0.8693   -1.8979    0.0000 C   0  0  0  0  0  0  0  0  0  0  0  0
   -2.7978   -1.8985    0.0000 O   0  0  0  0  0  0  0  0  0  0  0  0
  1  2  1  0  0  0  0 
  2  3  2  0  0  0  0 
  3  4  1  0  0  0  0 
  4  5  2  0  0  0  0 
  5  6  1  0  0  0  0 
  6  7  2  0  0  0  0 
  2  7  1  0  0  0  0 
  5  8  1  0  0  0  0 
  8  9  2  0  0  0  0 
  8 10  2  0  0  0  0 
  8 11  1  0  0  0  0 
 11 12  1  0  0  0  0 
 12 13  2  0  0  0  0 
 13 14  1  0  0  0  0 
 14 15  2  0  0  0  0 
 15 16  1  0  0  0  0 
 16 17  2  0  0  0  0 
 12 17  1  0  0  0  0 
 15 18  1  0  0  0  0 
 18 19  2  0  0  0  0 
 18 20  1  4  0  0  0 
 20 21  2  0  0  0  0 
 21 22  1  0  0  0  0 
 22 23  1  0  0  0  0 
 23 24  2  0  0  0  0 
 24 25  1  0  0  0  0 
 25 26  2  0  0  0  0 
 25 27  1  0  0  0  0 
 27 28  2  0  0  0  0 
 22 28  1  0  0  0  0 
 22 29  1  0  0  0  0 
M  END
> <Rank>
4

> <Priority_score>
0.744

> <Reaction_type>
oxidation of 4-substituted phenol to quinone (substituent not a leaving group)

> <Parent_ID>
1

> <Parent_InChI>
InChI=1S/C22H19NO4S/c1-16-2-13-21(14-3-16)28(26,27)23-19-9-7-18(8-10-19)22(25)15-6-17-4-11-20(24)12-5-17/h2-15,23-24H,1H3/b15-6+

> <Parent_SMILES>
C([H])([H])([H])C1=C([H])C([H])=C(C([H])=C1[H])S(=O)(=O)N([H])C2=C([H])C([H])=C(C([H])=C2[H])C(=O)/C(/[H])=C(\[H])/C3=C([H])C([H])=C(C([H])=C3[H])O[H]

$$$$
