
  CDK     1104240434

 24 25  0  0  0  0  0  0  0  0999 V2000
    4.1206    2.8756    0.0000 C   0  0  0  0  0  0  0  0  0  0  0  0
    2.8228    3.6278    0.0000 C   0  0  2  0  0  0  0  0  0  0  0  0
    2.8254    5.1278    0.0000 C   0  0  0  0  0  0  0  0  0  0  0  0
    4.1257    5.8756    0.0000 C   0  0  0  0  0  0  0  0  0  0  0  0
    4.1282    7.3756    0.0000 C   0  0  0  0  0  0  0  0  0  0  0  0
    5.4285    8.1234    0.0000 N   0  0  0  0  0  0  0  0  0  0  0  0
    5.4310    9.6234    0.0000 C   0  0  0  0  0  0  0  0  0  0  0  0
    6.7313   10.3712    0.0000 C   0  0  0  0  0  0  0  0  0  0  0  0
    6.7338   11.8712    0.0000 O   0  0  0  0  0  0  0  0  0  0  0  0
    6.7263    7.3712    0.0000 C   0  0  0  0  0  0  0  0  0  0  0  0
    8.0266    8.1190    0.0000 C   0  0  0  0  0  0  0  0  0  0  0  0
    6.7237    5.8712    0.0000 O   0  0  0  0  0  0  0  0  0  0  0  0
    1.5225    2.8800    0.0000 N   0  0  0  0  0  0  0  0  0  0  0  0
    1.5200    1.3800    0.0000 C   0  0  0  0  0  0  0  0  0  0  0  0
    2.8100    0.6200    0.0000 C   0  0  0  0  0  0  0  0  0  0  0  0
    2.8100   -0.8800    0.0000 C   0  0  0  0  0  0  0  0  0  0  0  0
    1.5200   -1.6200    0.0000 N   0  0  0  0  0  0  0  0  0  0  0  0
    0.2200   -0.8800    0.0000 C   0  0  0  0  0  0  0  0  0  0  0  0
   -1.0800   -1.6200    0.0000 C   0  0  0  0  0  0  0  0  0  0  0  0
   -2.3800   -0.8800    0.0000 C   0  0  0  0  0  0  0  0  0  0  0  0
   -2.3800    0.6200    0.0000 C   0  0  0  0  0  0  0  0  0  0  0  0
   -1.0800    1.3800    0.0000 C   0  0  0  0  0  0  0  0  0  0  0  0
    0.2200    0.6200    0.0000 C   0  0  0  0  0  0  0  0  0  0  0  0
   -3.6767   -1.6340    0.0000 Cl  0  0  0  0  0  0  0  0  0  0  0  0
  2  1  1  1  0  0  0 
  2  3  1  0  0  0  0 
  3  4  1  0  0  0  0 
  4  5  1  0  0  0  0 
  5  6  1  0  0  0  0 
  6  7  1  0  0  0  0 
  7  8  1  0  0  0  0 
  8  9  1  0  0  0  0 
  6 10  1  0  0  0  0 
 10 11  1  0  0  0  0 
 10 12  1  0  0  0  0 
  2 13  1  0  0  0  0 
 13 14  1  0  0  0  0 
 14 15  2  0  0  0  0 
 15 16  1  0  0  0  0 
 16 17  2  0  0  0  0 
 17 18  1  0  0  0  0 
 18 19  2  0  0  0  0 
 19 20  1  0  0  0  0 
 20 21  2  0  0  0  0 
 21 22  1  0  0  0  0 
 22 23  2  0  0  0  0 
 14 23  1  0  0  0  0 
 18 23  1  0  0  0  0 
 20 24  1  0  0  0  0 
M  END
> <Rank>
1

> <Priority_score>
3.7199999999999998

> <Reaction_type>
aliphatic hydroxylation

> <Parent_ID>
1

> <Parent_InChI>
InChI=1S/C18H26ClN3O/c1-3-22(11-12-23)10-4-5-14(2)21-17-8-9-20-18-13-15(19)6-7-16(17)18/h6-9,13-14,23H,3-5,10-12H2,1-2H3,(H,20,21)/t14-/m1/s1

> <Parent_SMILES>
C([H])([H])([H])C([H])([H])N(C([H])([H])C([H])([H])C([H])([H])[C@@]([H])(C([H])([H])[H])N([H])C1=C([H])C([H])=NC2=C([H])C(=C([H])C([H])=C12)Cl)C([H])([H])C([H])([H])O[H]

$$$$

  CDK     1104240434

  3  2  0  0  0  0  0  0  0  0999 V2000
    0.0000    0.0000    0.0000 C   0  0  0  0  0  0  0  0  0  0  0  0
    1.2990   -0.7500    0.0000 C   0  0  0  0  0  0  0  0  0  0  0  0
    2.5981   -0.0000    0.0000 O   0  0  0  0  0  0  0  0  0  0  0  0
  1  2  1  0  0  0  0 
  2  3  2  0  0  0  0 
M  END
> <Rank>
1

> <Priority_score>
3.7199999999999998

> <Reaction_type>
N-dealkylation

> <Parent_ID>
1

> <Parent_InChI>
InChI=1S/C18H26ClN3O/c1-3-22(11-12-23)10-4-5-14(2)21-17-8-9-20-18-13-15(19)6-7-16(17)18/h6-9,13-14,23H,3-5,10-12H2,1-2H3,(H,20,21)/t14-/m1/s1

> <Parent_SMILES>
C([H])([H])([H])C([H])([H])N(C([H])([H])C([H])([H])C([H])([H])[C@@]([H])(C([H])([H])[H])N([H])C1=C([H])C([H])=NC2=C([H])C(=C([H])C([H])=C12)Cl)C([H])([H])C([H])([H])O[H]

$$$$

  CDK     1104240434

 24 25  0  0  0  0  0  0  0  0999 V2000
    7.4159    6.4501    0.0000 C   0  0  0  0  0  0  0  0  0  0  0  0
    5.9391    6.7130    0.0000 C   0  0  0  0  0  0  0  0  0  0  0  0
    5.4285    8.1234    0.0000 N   0  0  0  0  0  0  0  0  0  0  0  0
    4.1282    7.3756    0.0000 C   0  0  0  0  0  0  0  0  0  0  0  0
    4.1257    5.8756    0.0000 C   0  0  0  0  0  0  0  0  0  0  0  0
    2.8254    5.1278    0.0000 C   0  0  0  0  0  0  0  0  0  0  0  0
    2.8228    3.6278    0.0000 C   0  0  1  0  0  0  0  0  0  0  0  0
    4.1206    2.8756    0.0000 C   0  0  0  0  0  0  0  0  0  0  0  0
    1.5225    2.8800    0.0000 N   0  0  0  0  0  0  0  0  0  0  0  0
    1.5200    1.3800    0.0000 C   0  0  0  0  0  0  0  0  0  0  0  0
    2.8100    0.6200    0.0000 C   0  0  0  0  0  0  0  0  0  0  0  0
    2.8100   -0.8800    0.0000 C   0  0  0  0  0  0  0  0  0  0  0  0
    1.5200   -1.6200    0.0000 N   0  0  0  0  0  0  0  0  0  0  0  0
    0.2200   -0.8800    0.0000 C   0  0  0  0  0  0  0  0  0  0  0  0
   -1.0800   -1.6200    0.0000 C   0  0  0  0  0  0  0  0  0  0  0  0
   -2.3800   -0.8800    0.0000 C   0  0  0  0  0  0  0  0  0  0  0  0
   -2.3800    0.6200    0.0000 C   0  0  0  0  0  0  0  0  0  0  0  0
   -1.0800    1.3800    0.0000 C   0  0  0  0  0  0  0  0  0  0  0  0
    0.2200    0.6200    0.0000 C   0  0  0  0  0  0  0  0  0  0  0  0
   -3.6767   -1.6340    0.0000 Cl  0  0  0  0  0  0  0  0  0  0  0  0
    5.4310    9.6234    0.0000 C   0  0  0  0  0  0  0  0  0  0  0  0
    6.7313   10.3712    0.0000 C   0  0  0  0  0  0  0  0  0  0  0  0
    6.7338   11.8712    0.0000 O   0  0  0  0  0  0  0  0  0  0  0  0
    6.9061    8.3814    0.0000 O   0  0  0  0  0  0  0  0  0  0  0  0
  1  2  1  0  0  0  0 
  2  3  1  0  0  0  0 
  3  4  1  0  0  0  0 
  4  5  1  0  0  0  0 
  5  6  1  0  0  0  0 
  6  7  1  0  0  0  0 
  7  8  1  1  0  0  0 
  7  9  1  0  0  0  0 
  9 10  1  0  0  0  0 
 10 11  2  0  0  0  0 
 11 12  1  0  0  0  0 
 12 13  2  0  0  0  0 
 13 14  1  0  0  0  0 
 14 15  2  0  0  0  0 
 15 16  1  0  0  0  0 
 16 17  2  0  0  0  0 
 17 18  1  0  0  0  0 
 18 19  2  0  0  0  0 
 10 19  1  0  0  0  0 
 14 19  1  0  0  0  0 
 16 20  1  0  0  0  0 
  3 21  1  0  0  0  0 
 21 22  1  0  0  0  0 
 22 23  1  0  0  0  0 
  3 24  1  0  0  0  0 
M  CHG  1   3   1
M  CHG  1  24  -1
M  END
> <Rank>
1

> <Priority_score>
3.7199999999999998

> <Reaction_type>
N-oxidation

> <Parent_ID>
1

> <Parent_InChI>
InChI=1S/C18H26ClN3O/c1-3-22(11-12-23)10-4-5-14(2)21-17-8-9-20-18-13-15(19)6-7-16(17)18/h6-9,13-14,23H,3-5,10-12H2,1-2H3,(H,20,21)/t14-/m1/s1

> <Parent_SMILES>
C([H])([H])([H])C([H])([H])N(C([H])([H])C([H])([H])C([H])([H])[C@@]([H])(C([H])([H])[H])N([H])C1=C([H])C([H])=NC2=C([H])C(=C([H])C([H])=C12)Cl)C([H])([H])C([H])([H])O[H]

$$$$

  CDK     1104240434

 21 22  0  0  0  0  0  0  0  0999 V2000
    4.1206    2.8756    0.0000 C   0  0  0  0  0  0  0  0  0  0  0  0
    2.8228    3.6278    0.0000 C   0  0  2  0  0  0  0  0  0  0  0  0
    2.8254    5.1278    0.0000 C   0  0  0  0  0  0  0  0  0  0  0  0
    4.1257    5.8756    0.0000 C   0  0  0  0  0  0  0  0  0  0  0  0
    4.1282    7.3756    0.0000 C   0  0  0  0  0  0  0  0  0  0  0  0
    5.4285    8.1234    0.0000 N   0  0  0  0  0  0  0  0  0  0  0  0
    5.4310    9.6234    0.0000 C   0  0  0  0  0  0  0  0  0  0  0  0
    6.7313   10.3712    0.0000 C   0  0  0  0  0  0  0  0  0  0  0  0
    6.7338   11.8712    0.0000 O   0  0  0  0  0  0  0  0  0  0  0  0
    1.5225    2.8800    0.0000 N   0  0  0  0  0  0  0  0  0  0  0  0
    1.5200    1.3800    0.0000 C   0  0  0  0  0  0  0  0  0  0  0  0
    2.8100    0.6200    0.0000 C   0  0  0  0  0  0  0  0  0  0  0  0
    2.8100   -0.8800    0.0000 C   0  0  0  0  0  0  0  0  0  0  0  0
    1.5200   -1.6200    0.0000 N   0  0  0  0  0  0  0  0  0  0  0  0
    0.2200   -0.8800    0.0000 C   0  0  0  0  0  0  0  0  0  0  0  0
   -1.0800   -1.6200    0.0000 C   0  0  0  0  0  0  0  0  0  0  0  0
   -2.3800   -0.8800    0.0000 C   0  0  0  0  0  0  0  0  0  0  0  0
   -2.3800    0.6200    0.0000 C   0  0  0  0  0  0  0  0  0  0  0  0
   -1.0800    1.3800    0.0000 C   0  0  0  0  0  0  0  0  0  0  0  0
    0.2200    0.6200    0.0000 C   0  0  0  0  0  0  0  0  0  0  0  0
   -3.6767   -1.6340    0.0000 Cl  0  0  0  0  0  0  0  0  0  0  0  0
  2  1  1  1  0  0  0 
  2  3  1  0  0  0  0 
  3  4  1  0  0  0  0 
  4  5  1  0  0  0  0 
  5  6  1  0  0  0  0 
  6  7  1  0  0  0  0 
  7  8  1  0  0  0  0 
  8  9  1  0  0  0  0 
  2 10  1  0  0  0  0 
 10 11  1  0  0  0  0 
 11 12  2  0  0  0  0 
 12 13  1  0  0  0  0 
 13 14  2  0  0  0  0 
 14 15  1  0  0  0  0 
 15 16  2  0  0  0  0 
 16 17  1  0  0  0  0 
 17 18  2  0  0  0  0 
 18 19  1  0  0  0  0 
 19 20  2  0  0  0  0 
 11 20  1  0  0  0  0 
 15 20  1  0  0  0  0 
 17 21  1  0  0  0  0 
M  END
> <Rank>
1

> <Priority_score>
3.7199999999999998

> <Reaction_type>
N-dealkylation

> <Parent_ID>
1

> <Parent_InChI>
InChI=1S/C18H26ClN3O/c1-3-22(11-12-23)10-4-5-14(2)21-17-8-9-20-18-13-15(19)6-7-16(17)18/h6-9,13-14,23H,3-5,10-12H2,1-2H3,(H,20,21)/t14-/m1/s1

> <Parent_SMILES>
C([H])([H])([H])C([H])([H])N(C([H])([H])C([H])([H])C([H])([H])[C@@]([H])(C([H])([H])[H])N([H])C1=C([H])C([H])=NC2=C([H])C(=C([H])C([H])=C12)Cl)C([H])([H])C([H])([H])O[H]

$$$$

  CDK     1104240434

 24 25  0  0  0  0  0  0  0  0999 V2000
    8.0266    8.1190    0.0000 C   0  0  0  0  0  0  0  0  0  0  0  0
    6.7263    7.3712    0.0000 C   0  0  0  0  0  0  0  0  0  0  0  0
    5.4285    8.1234    0.0000 N   0  0  0  0  0  0  0  0  0  0  0  0
    4.1282    7.3756    0.0000 C   0  0  0  0  0  0  0  0  0  0  0  0
    4.1257    5.8756    0.0000 C   0  0  0  0  0  0  0  0  0  0  0  0
    2.8254    5.1278    0.0000 C   0  0  0  0  0  0  0  0  0  0  0  0
    2.8228    3.6278    0.0000 C   0  0  1  0  0  0  0  0  0  0  0  0
    4.1206    2.8756    0.0000 C   0  0  0  0  0  0  0  0  0  0  0  0
    1.5225    2.8800    0.0000 N   0  0  0  0  0  0  0  0  0  0  0  0
    1.5200    1.3800    0.0000 C   0  0  0  0  0  0  0  0  0  0  0  0
    2.8100    0.6200    0.0000 C   0  0  0  0  0  0  0  0  0  0  0  0
    2.8100   -0.8800    0.0000 C   0  0  0  0  0  0  0  0  0  0  0  0
    1.5200   -1.6200    0.0000 N   0  0  0  0  0  0  0  0  0  0  0  0
    0.2200   -0.8800    0.0000 C   0  0  0  0  0  0  0  0  0  0  0  0
   -1.0800   -1.6200    0.0000 C   0  0  0  0  0  0  0  0  0  0  0  0
   -2.3800   -0.8800    0.0000 C   0  0  0  0  0  0  0  0  0  0  0  0
   -2.3800    0.6200    0.0000 C   0  0  0  0  0  0  0  0  0  0  0  0
   -1.0800    1.3800    0.0000 C   0  0  0  0  0  0  0  0  0  0  0  0
    0.2200    0.6200    0.0000 C   0  0  0  0  0  0  0  0  0  0  0  0
   -3.6767   -1.6340    0.0000 Cl  0  0  0  0  0  0  0  0  0  0  0  0
    5.4310    9.6234    0.0000 C   0  0  0  0  0  0  0  0  0  0  0  0
    6.7313   10.3712    0.0000 C   0  0  0  0  0  0  0  0  0  0  0  0
    6.7338   11.8712    0.0000 O   0  0  0  0  0  0  0  0  0  0  0  0
    4.1332   10.3756    0.0000 O   0  0  0  0  0  0  0  0  0  0  0  0
  1  2  1  0  0  0  0 
  2  3  1  0  0  0  0 
  3  4  1  0  0  0  0 
  4  5  1  0  0  0  0 
  5  6  1  0  0  0  0 
  6  7  1  0  0  0  0 
  7  8  1  1  0  0  0 
  7  9  1  0  0  0  0 
  9 10  1  0  0  0  0 
 10 11  2  0  0  0  0 
 11 12  1  0  0  0  0 
 12 13  2  0  0  0  0 
 13 14  1  0  0  0  0 
 14 15  2  0  0  0  0 
 15 16  1  0  0  0  0 
 16 17  2  0  0  0  0 
 17 18  1  0  0  0  0 
 18 19  2  0  0  0  0 
 10 19  1  0  0  0  0 
 14 19  1  0  0  0  0 
 16 20  1  0  0  0  0 
  3 21  1  0  0  0  0 
 21 22  1  0  0  0  0 
 22 23  1  0  0  0  0 
 21 24  1  0  0  0  0 
M  END
> <Rank>
5

> <Priority_score>
3.4899999999999998

> <Reaction_type>
aliphatic hydroxylation

> <Parent_ID>
1

> <Parent_InChI>
InChI=1S/C18H26ClN3O/c1-3-22(11-12-23)10-4-5-14(2)21-17-8-9-20-18-13-15(19)6-7-16(17)18/h6-9,13-14,23H,3-5,10-12H2,1-2H3,(H,20,21)/t14-/m1/s1

> <Parent_SMILES>
C([H])([H])([H])C([H])([H])N(C([H])([H])C([H])([H])C([H])([H])[C@@]([H])(C([H])([H])[H])N([H])C1=C([H])C([H])=NC2=C([H])C(=C([H])C([H])=C12)Cl)C([H])([H])C([H])([H])O[H]

$$$$

  CDK     1104240434

  4  3  0  0  0  0  0  0  0  0999 V2000
    1.2990   -0.7500    0.0000 C   0  0  0  0  0  0  0  0  0  0  0  0
    0.0000    0.0000    0.0000 O   0  0  0  0  0  0  0  0  0  0  0  0
    2.5981   -0.0000    0.0000 C   0  0  0  0  0  0  0  0  0  0  0  0
    3.8971   -0.7500    0.0000 O   0  0  0  0  0  0  0  0  0  0  0  0
  1  2  2  0  0  0  0 
  1  3  1  0  0  0  0 
  3  4  1  0  0  0  0 
M  END
> <Rank>
5

> <Priority_score>
3.4899999999999998

> <Reaction_type>
N-dealkylation

> <Parent_ID>
1

> <Parent_InChI>
InChI=1S/C18H26ClN3O/c1-3-22(11-12-23)10-4-5-14(2)21-17-8-9-20-18-13-15(19)6-7-16(17)18/h6-9,13-14,23H,3-5,10-12H2,1-2H3,(H,20,21)/t14-/m1/s1

> <Parent_SMILES>
C([H])([H])([H])C([H])([H])N(C([H])([H])C([H])([H])C([H])([H])[C@@]([H])(C([H])([H])[H])N([H])C1=C([H])C([H])=NC2=C([H])C(=C([H])C([H])=C12)Cl)C([H])([H])C([H])([H])O[H]

$$$$

  CDK     1104240434

 20 21  0  0  0  0  0  0  0  0999 V2000
    6.7313   10.3712    0.0000 C   0  0  0  0  0  0  0  0  0  0  0  0
    5.4310    9.6234    0.0000 C   0  0  0  0  0  0  0  0  0  0  0  0
    5.4285    8.1234    0.0000 N   0  0  0  0  0  0  0  0  0  0  0  0
    4.1282    7.3756    0.0000 C   0  0  0  0  0  0  0  0  0  0  0  0
    4.1257    5.8756    0.0000 C   0  0  0  0  0  0  0  0  0  0  0  0
    2.8254    5.1278    0.0000 C   0  0  0  0  0  0  0  0  0  0  0  0
    2.8228    3.6278    0.0000 C   0  0  1  0  0  0  0  0  0  0  0  0
    4.1206    2.8756    0.0000 C   0  0  0  0  0  0  0  0  0  0  0  0
    1.5225    2.8800    0.0000 N   0  0  0  0  0  0  0  0  0  0  0  0
    1.5200    1.3800    0.0000 C   0  0  0  0  0  0  0  0  0  0  0  0
    2.8100    0.6200    0.0000 C   0  0  0  0  0  0  0  0  0  0  0  0
    2.8100   -0.8800    0.0000 C   0  0  0  0  0  0  0  0  0  0  0  0
    1.5200   -1.6200    0.0000 N   0  0  0  0  0  0  0  0  0  0  0  0
    0.2200   -0.8800    0.0000 C   0  0  0  0  0  0  0  0  0  0  0  0
   -1.0800   -1.6200    0.0000 C   0  0  0  0  0  0  0  0  0  0  0  0
   -2.3800   -0.8800    0.0000 C   0  0  0  0  0  0  0  0  0  0  0  0
   -2.3800    0.6200    0.0000 C   0  0  0  0  0  0  0  0  0  0  0  0
   -1.0800    1.3800    0.0000 C   0  0  0  0  0  0  0  0  0  0  0  0
    0.2200    0.6200    0.0000 C   0  0  0  0  0  0  0  0  0  0  0  0
   -3.6767   -1.6340    0.0000 Cl  0  0  0  0  0  0  0  0  0  0  0  0
  1  2  1  0  0  0  0 
  2  3  1  0  0  0  0 
  3  4  1  0  0  0  0 
  4  5  1  0  0  0  0 
  5  6  1  0  0  0  0 
  6  7  1  0  0  0  0 
  7  8  1  1  0  0  0 
  7  9  1  0  0  0  0 
  9 10  1  0  0  0  0 
 10 11  2  0  0  0  0 
 11 12  1  0  0  0  0 
 12 13  2  0  0  0  0 
 13 14  1  0  0  0  0 
 14 15  2  0  0  0  0 
 15 16  1  0  0  0  0 
 16 17  2  0  0  0  0 
 17 18  1  0  0  0  0 
 18 19  2  0  0  0  0 
 10 19  1  0  0  0  0 
 14 19  1  0  0  0  0 
 16 20  1  0  0  0  0 
M  END
> <Rank>
5

> <Priority_score>
3.4899999999999998

> <Reaction_type>
N-dealkylation

> <Parent_ID>
1

> <Parent_InChI>
InChI=1S/C18H26ClN3O/c1-3-22(11-12-23)10-4-5-14(2)21-17-8-9-20-18-13-15(19)6-7-16(17)18/h6-9,13-14,23H,3-5,10-12H2,1-2H3,(H,20,21)/t14-/m1/s1

> <Parent_SMILES>
C([H])([H])([H])C([H])([H])N(C([H])([H])C([H])([H])C([H])([H])[C@@]([H])(C([H])([H])[H])N([H])C1=C([H])C([H])=NC2=C([H])C(=C([H])C([H])=C12)Cl)C([H])([H])C([H])([H])O[H]

$$$$

  CDK     1104240434

 23 24  0  0  0  0  0  0  0  0999 V2000
    8.0266    8.1190    0.0000 C   0  0  0  0  0  0  0  0  0  0  0  0
    6.7263    7.3712    0.0000 C   0  0  0  0  0  0  0  0  0  0  0  0
    5.4285    8.1234    0.0000 N   0  0  0  0  0  0  0  0  0  0  0  0
    4.1282    7.3756    0.0000 C   0  0  0  0  0  0  0  0  0  0  0  0
    4.1257    5.8756    0.0000 C   0  0  0  0  0  0  0  0  0  0  0  0
    2.8254    5.1278    0.0000 C   0  0  0  0  0  0  0  0  0  0  0  0
    2.8228    3.6278    0.0000 C   0  0  1  0  0  0  0  0  0  0  0  0
    4.1206    2.8756    0.0000 C   0  0  0  0  0  0  0  0  0  0  0  0
    1.5225    2.8800    0.0000 N   0  0  0  0  0  0  0  0  0  0  0  0
    1.5200    1.3800    0.0000 C   0  0  0  0  0  0  0  0  0  0  0  0
    2.8100    0.6200    0.0000 C   0  0  0  0  0  0  0  0  0  0  0  0
    2.8100   -0.8800    0.0000 C   0  0  0  0  0  0  0  0  0  0  0  0
    1.5200   -1.6200    0.0000 N   0  0  0  0  0  0  0  0  0  0  0  0
    0.2200   -0.8800    0.0000 C   0  0  0  0  0  0  0  0  0  0  0  0
   -1.0800   -1.6200    0.0000 C   0  0  0  0  0  0  0  0  0  0  0  0
   -2.3800   -0.8800    0.0000 C   0  0  0  0  0  0  0  0  0  0  0  0
   -2.3800    0.6200    0.0000 C   0  0  0  0  0  0  0  0  0  0  0  0
   -1.0800    1.3800    0.0000 C   0  0  0  0  0  0  0  0  0  0  0  0
    0.2200    0.6200    0.0000 C   0  0  0  0  0  0  0  0  0  0  0  0
   -3.6767   -1.6340    0.0000 Cl  0  0  0  0  0  0  0  0  0  0  0  0
    5.4310    9.6234    0.0000 C   0  0  0  0  0  0  0  0  0  0  0  0
    6.7313   10.3712    0.0000 C   0  0  0  0  0  0  0  0  0  0  0  0
    6.7338   11.8712    0.0000 O   0  0  0  0  0  0  0  0  0  0  0  0
  1  2  1  4  0  0  0 
  2  3  2  0  0  0  0 
  3  4  1  0  0  0  0 
  4  5  1  0  0  0  0 
  5  6  1  0  0  0  0 
  6  7  1  0  0  0  0 
  7  8  1  1  0  0  0 
  7  9  1  0  0  0  0 
  9 10  1  0  0  0  0 
 10 11  2  0  0  0  0 
 11 12  1  0  0  0  0 
 12 13  2  0  0  0  0 
 13 14  1  0  0  0  0 
 14 15  2  0  0  0  0 
 15 16  1  0  0  0  0 
 16 17  2  0  0  0  0 
 17 18  1  0  0  0  0 
 18 19  2  0  0  0  0 
 10 19  1  0  0  0  0 
 14 19  1  0  0  0  0 
 16 20  1  0  0  0  0 
  3 21  1  0  0  0  0 
 21 22  1  0  0  0  0 
 22 23  1  0  0  0  0 
M  CHG  1   3   1
M  END
> <Rank>
8

> <Priority_score>
0.744

> <Reaction_type>
dehydration of N-C bond

> <Parent_ID>
1

> <Parent_InChI>
InChI=1S/C18H26ClN3O/c1-3-22(11-12-23)10-4-5-14(2)21-17-8-9-20-18-13-15(19)6-7-16(17)18/h6-9,13-14,23H,3-5,10-12H2,1-2H3,(H,20,21)/t14-/m1/s1

> <Parent_SMILES>
C([H])([H])([H])C([H])([H])N(C([H])([H])C([H])([H])C([H])([H])[C@@]([H])(C([H])([H])[H])N([H])C1=C([H])C([H])=NC2=C([H])C(=C([H])C([H])=C12)Cl)C([H])([H])C([H])([H])O[H]

$$$$

  CDK     1104240434

 23 24  0  0  0  0  0  0  0  0999 V2000
    8.0266    8.1190    0.0000 C   0  0  0  0  0  0  0  0  0  0  0  0
    6.7263    7.3712    0.0000 C   0  0  0  0  0  0  0  0  0  0  0  0
    5.4285    8.1234    0.0000 N   0  0  0  0  0  0  0  0  0  0  0  0
    4.1282    7.3756    0.0000 C   0  0  0  0  0  0  0  0  0  0  0  0
    4.1257    5.8756    0.0000 C   0  0  0  0  0  0  0  0  0  0  0  0
    2.8254    5.1278    0.0000 C   0  0  0  0  0  0  0  0  0  0  0  0
    2.8228    3.6278    0.0000 C   0  0  1  0  0  0  0  0  0  0  0  0
    4.1206    2.8756    0.0000 C   0  0  0  0  0  0  0  0  0  0  0  0
    1.5225    2.8800    0.0000 N   0  0  0  0  0  0  0  0  0  0  0  0
    1.5200    1.3800    0.0000 C   0  0  0  0  0  0  0  0  0  0  0  0
    2.8100    0.6200    0.0000 C   0  0  0  0  0  0  0  0  0  0  0  0
    2.8100   -0.8800    0.0000 C   0  0  0  0  0  0  0  0  0  0  0  0
    1.5200   -1.6200    0.0000 N   0  0  0  0  0  0  0  0  0  0  0  0
    0.2200   -0.8800    0.0000 C   0  0  0  0  0  0  0  0  0  0  0  0
   -1.0800   -1.6200    0.0000 C   0  0  0  0  0  0  0  0  0  0  0  0
   -2.3800   -0.8800    0.0000 C   0  0  0  0  0  0  0  0  0  0  0  0
   -2.3800    0.6200    0.0000 C   0  0  0  0  0  0  0  0  0  0  0  0
   -1.0800    1.3800    0.0000 C   0  0  0  0  0  0  0  0  0  0  0  0
    0.2200    0.6200    0.0000 C   0  0  0  0  0  0  0  0  0  0  0  0
   -3.6767   -1.6340    0.0000 Cl  0  0  0  0  0  0  0  0  0  0  0  0
    5.4310    9.6234    0.0000 C   0  0  0  0  0  0  0  0  0  0  0  0
    6.7313   10.3712    0.0000 C   0  0  0  0  0  0  0  0  0  0  0  0
    6.7338   11.8712    0.0000 O   0  0  0  0  0  0  0  0  0  0  0  0
  1  2  2  0  0  0  0 
  2  3  1  0  0  0  0 
  3  4  1  0  0  0  0 
  4  5  1  0  0  0  0 
  5  6  1  0  0  0  0 
  6  7  1  0  0  0  0 
  7  8  1  1  0  0  0 
  7  9  1  0  0  0  0 
  9 10  1  0  0  0  0 
 10 11  2  0  0  0  0 
 11 12  1  0  0  0  0 
 12 13  2  0  0  0  0 
 13 14  1  0  0  0  0 
 14 15  2  0  0  0  0 
 15 16  1  0  0  0  0 
 16 17  2  0  0  0  0 
 17 18  1  0  0  0  0 
 18 19  2  0  0  0  0 
 10 19  1  0  0  0  0 
 14 19  1  0  0  0  0 
 16 20  1  0  0  0  0 
  3 21  1  0  0  0  0 
 21 22  1  0  0  0  0 
 22 23  1  0  0  0  0 
M  END
> <Rank>
8

> <Priority_score>
0.744

> <Reaction_type>
alkyl dehydrogenation

> <Parent_ID>
1

> <Parent_InChI>
InChI=1S/C18H26ClN3O/c1-3-22(11-12-23)10-4-5-14(2)21-17-8-9-20-18-13-15(19)6-7-16(17)18/h6-9,13-14,23H,3-5,10-12H2,1-2H3,(H,20,21)/t14-/m1/s1

> <Parent_SMILES>
C([H])([H])([H])C([H])([H])N(C([H])([H])C([H])([H])C([H])([H])[C@@]([H])(C([H])([H])[H])N([H])C1=C([H])C([H])=NC2=C([H])C(=C([H])C([H])=C12)Cl)C([H])([H])C([H])([H])O[H]

$$$$

  CDK     1104240434

 23 24  0  0  0  0  0  0  0  0999 V2000
    8.0266    8.1190    0.0000 C   0  0  0  0  0  0  0  0  0  0  0  0
    6.7263    7.3712    0.0000 C   0  0  0  0  0  0  0  0  0  0  0  0
    5.4285    8.1234    0.0000 N   0  0  0  0  0  0  0  0  0  0  0  0
    5.4310    9.6234    0.0000 C   0  0  0  0  0  0  0  0  0  0  0  0
    6.7313   10.3712    0.0000 C   0  0  0  0  0  0  0  0  0  0  0  0
    6.7338   11.8712    0.0000 O   0  0  0  0  0  0  0  0  0  0  0  0
    4.1282    7.3756    0.0000 C   0  0  0  0  0  0  0  0  0  0  0  0
    4.1257    5.8756    0.0000 C   0  0  0  0  0  0  0  0  0  0  0  0
    2.8254    5.1278    0.0000 C   0  0  0  0  0  0  0  0  0  0  0  0
    2.8228    3.6278    0.0000 C   0  0  1  0  0  0  0  0  0  0  0  0
    4.1206    2.8756    0.0000 C   0  0  0  0  0  0  0  0  0  0  0  0
    1.5225    2.8800    0.0000 N   0  0  0  0  0  0  0  0  0  0  0  0
    1.5200    1.3800    0.0000 C   0  0  0  0  0  0  0  0  0  0  0  0
    2.8100    0.6200    0.0000 C   0  0  0  0  0  0  0  0  0  0  0  0
    2.8100   -0.8800    0.0000 C   0  0  0  0  0  0  0  0  0  0  0  0
    1.5200   -1.6200    0.0000 N   0  0  0  0  0  0  0  0  0  0  0  0
    0.2200   -0.8800    0.0000 C   0  0  0  0  0  0  0  0  0  0  0  0
   -1.0800   -1.6200    0.0000 C   0  0  0  0  0  0  0  0  0  0  0  0
   -2.3800   -0.8800    0.0000 C   0  0  0  0  0  0  0  0  0  0  0  0
   -2.3800    0.6200    0.0000 C   0  0  0  0  0  0  0  0  0  0  0  0
   -1.0800    1.3800    0.0000 C   0  0  0  0  0  0  0  0  0  0  0  0
    0.2200    0.6200    0.0000 C   0  0  0  0  0  0  0  0  0  0  0  0
   -3.6767   -1.6340    0.0000 Cl  0  0  0  0  0  0  0  0  0  0  0  0
  1  2  1  0  0  0  0 
  2  3  1  4  0  0  0 
  3  4  2  0  0  0  0 
  4  5  1  0  0  0  0 
  5  6  1  0  0  0  0 
  3  7  1  0  0  0  0 
  7  8  1  0  0  0  0 
  8  9  1  0  0  0  0 
  9 10  1  0  0  0  0 
 10 11  1  1  0  0  0 
 10 12  1  0  0  0  0 
 12 13  1  0  0  0  0 
 13 14  2  0  0  0  0 
 14 15  1  0  0  0  0 
 15 16  2  0  0  0  0 
 16 17  1  0  0  0  0 
 17 18  2  0  0  0  0 
 18 19  1  0  0  0  0 
 19 20  2  0  0  0  0 
 20 21  1  0  0  0  0 
 21 22  2  0  0  0  0 
 13 22  1  0  0  0  0 
 17 22  1  0  0  0  0 
 19 23  1  0  0  0  0 
M  CHG  1   3   1
M  END
> <Rank>
10

> <Priority_score>
0.698

> <Reaction_type>
dehydration of N-C bond

> <Parent_ID>
1

> <Parent_InChI>
InChI=1S/C18H26ClN3O/c1-3-22(11-12-23)10-4-5-14(2)21-17-8-9-20-18-13-15(19)6-7-16(17)18/h6-9,13-14,23H,3-5,10-12H2,1-2H3,(H,20,21)/t14-/m1/s1

> <Parent_SMILES>
C([H])([H])([H])C([H])([H])N(C([H])([H])C([H])([H])C([H])([H])[C@@]([H])(C([H])([H])[H])N([H])C1=C([H])C([H])=NC2=C([H])C(=C([H])C([H])=C12)Cl)C([H])([H])C([H])([H])O[H]

$$$$

  CDK     1104240434

 23 24  0  0  0  0  0  0  0  0999 V2000
    6.7313   10.3712    0.0000 C   0  0  0  0  0  0  0  0  0  0  0  0
    5.4310    9.6234    0.0000 C   0  0  0  0  0  0  0  0  0  0  0  0
    5.4285    8.1234    0.0000 N   0  0  0  0  0  0  0  0  0  0  0  0
    4.1282    7.3756    0.0000 C   0  0  0  0  0  0  0  0  0  0  0  0
    4.1257    5.8756    0.0000 C   0  0  0  0  0  0  0  0  0  0  0  0
    2.8254    5.1278    0.0000 C   0  0  0  0  0  0  0  0  0  0  0  0
    2.8228    3.6278    0.0000 C   0  0  1  0  0  0  0  0  0  0  0  0
    4.1206    2.8756    0.0000 C   0  0  0  0  0  0  0  0  0  0  0  0
    1.5225    2.8800    0.0000 N   0  0  0  0  0  0  0  0  0  0  0  0
    1.5200    1.3800    0.0000 C   0  0  0  0  0  0  0  0  0  0  0  0
    2.8100    0.6200    0.0000 C   0  0  0  0  0  0  0  0  0  0  0  0
    2.8100   -0.8800    0.0000 C   0  0  0  0  0  0  0  0  0  0  0  0
    1.5200   -1.6200    0.0000 N   0  0  0  0  0  0  0  0  0  0  0  0
    0.2200   -0.8800    0.0000 C   0  0  0  0  0  0  0  0  0  0  0  0
   -1.0800   -1.6200    0.0000 C   0  0  0  0  0  0  0  0  0  0  0  0
   -2.3800   -0.8800    0.0000 C   0  0  0  0  0  0  0  0  0  0  0  0
   -2.3800    0.6200    0.0000 C   0  0  0  0  0  0  0  0  0  0  0  0
   -1.0800    1.3800    0.0000 C   0  0  0  0  0  0  0  0  0  0  0  0
    0.2200    0.6200    0.0000 C   0  0  0  0  0  0  0  0  0  0  0  0
   -3.6767   -1.6340    0.0000 Cl  0  0  0  0  0  0  0  0  0  0  0  0
    6.7263    7.3712    0.0000 C   0  0  0  0  0  0  0  0  0  0  0  0
    8.0266    8.1190    0.0000 C   0  0  0  0  0  0  0  0  0  0  0  0
    8.0291    9.6190    0.0000 O   0  0  0  0  0  0  0  0  0  0  0  0
  1  2  1  0  0  0  0 
  2  3  1  0  0  0  0 
  3  4  1  0  0  0  0 
  4  5  1  0  0  0  0 
  5  6  1  0  0  0  0 
  6  7  1  0  0  0  0 
  7  8  1  1  0  0  0 
  7  9  1  0  0  0  0 
  9 10  1  0  0  0  0 
 10 11  2  0  0  0  0 
 11 12  1  0  0  0  0 
 12 13  2  0  0  0  0 
 13 14  1  0  0  0  0 
 14 15  2  0  0  0  0 
 15 16  1  0  0  0  0 
 16 17  2  0  0  0  0 
 17 18  1  0  0  0  0 
 18 19  2  0  0  0  0 
 10 19  1  0  0  0  0 
 14 19  1  0  0  0  0 
 16 20  1  0  0  0  0 
  3 21  1  0  0  0  0 
 21 22  2  0  0  0  0 
 22 23  1  4  0  0  0 
M  END
> <Rank>
10

> <Priority_score>
0.698

> <Reaction_type>
alkyl dehydrogenation

> <Parent_ID>
1

> <Parent_InChI>
InChI=1S/C18H26ClN3O/c1-3-22(11-12-23)10-4-5-14(2)21-17-8-9-20-18-13-15(19)6-7-16(17)18/h6-9,13-14,23H,3-5,10-12H2,1-2H3,(H,20,21)/t14-/m1/s1

> <Parent_SMILES>
C([H])([H])([H])C([H])([H])N(C([H])([H])C([H])([H])C([H])([H])[C@@]([H])(C([H])([H])[H])N([H])C1=C([H])C([H])=NC2=C([H])C(=C([H])C([H])=C12)Cl)C([H])([H])C([H])([H])O[H]

$$$$
