
  CDK     1104240450

 25 27  0  0  0  0  0  0  0  0999 V2000
    4.1000   -0.0000    0.0000 C   0  0  0  0  0  0  0  0  0  0  0  0
    2.6000   -0.0000    0.0000 C   0  0  2  0  0  0  0  0  0  0  0  0
    1.7200    1.2100    0.0000 C   0  0  0  0  0  0  0  0  0  0  0  0
    0.2900    0.7500    0.0000 C   0  0  0  0  0  0  0  0  0  0  0  0
   -1.0100    1.5000    0.0000 C   0  0  0  0  0  0  0  0  0  0  0  0
   -2.3100    0.7500    0.0000 C   0  0  0  0  0  0  0  0  0  0  0  0
   -2.3100   -0.7500    0.0000 C   0  0  0  0  0  0  0  0  0  0  0  0
   -1.0100   -1.5000    0.0000 C   0  0  0  0  0  0  0  0  0  0  0  0
    0.2900   -0.7500    0.0000 C   0  0  0  0  0  0  0  0  0  0  0  0
    1.7200   -1.2100    0.0000 N   0  0  0  0  0  0  0  0  0  0  0  0
    2.1853   -2.6360    0.0000 N   0  0  0  0  0  0  0  0  0  0  0  0
    3.6529   -2.9461    0.0000 C   0  0  0  0  0  0  0  0  0  0  0  0
    4.6552   -1.8301    0.0000 O   0  0  0  0  0  0  0  0  0  0  0  0
    4.1182   -4.3721    0.0000 C   0  0  0  0  0  0  0  0  0  0  0  0
    5.5865   -4.6826    0.0000 C   0  0  0  0  0  0  0  0  0  0  0  0
    6.0527   -6.1091    0.0000 C   0  0  0  0  0  0  0  0  0  0  0  0
    5.0506   -7.2253    0.0000 C   0  0  0  0  0  0  0  0  0  0  0  0
    3.5822   -6.9148    0.0000 C   0  0  0  0  0  0  0  0  0  0  0  0
    3.1160   -5.4882    0.0000 C   0  0  0  0  0  0  0  0  0  0  0  0
    2.5801   -8.0309    0.0000 S   0  0  0  0  0  0  0  0  0  0  0  0
    1.6550   -6.8502    0.0000 O   0  0  0  0  0  0  0  0  0  0  0  0
    1.2566   -8.7369    0.0000 O   0  0  0  0  0  0  0  0  0  0  0  0
    3.0456   -9.4568    0.0000 N   0  0  0  0  0  0  0  0  0  0  0  0
    5.5159   -8.6513    0.0000 Cl  0  0  0  0  0  0  0  0  0  0  0  0
   -3.6089    1.5002    0.0000 O   0  0  0  0  0  0  0  0  0  0  0  0
  2  1  1  1  0  0  0 
  2  3  1  0  0  0  0 
  3  4  1  0  0  0  0 
  4  5  2  0  0  0  0 
  5  6  1  0  0  0  0 
  6  7  2  0  0  0  0 
  7  8  1  0  0  0  0 
  8  9  2  0  0  0  0 
  4  9  1  0  0  0  0 
  9 10  1  0  0  0  0 
  2 10  1  0  0  0  0 
 10 11  1  0  0  0  0 
 11 12  1  0  0  0  0 
 12 13  2  0  0  0  0 
 12 14  1  0  0  0  0 
 14 15  2  0  0  0  0 
 15 16  1  0  0  0  0 
 16 17  2  0  0  0  0 
 17 18  1  0  0  0  0 
 18 19  2  0  0  0  0 
 14 19  1  0  0  0  0 
 18 20  1  0  0  0  0 
 20 21  2  0  0  0  0 
 20 22  2  0  0  0  0 
 20 23  1  0  0  0  0 
 17 24  1  0  0  0  0 
  6 25  1  0  0  0  0 
M  END
> <Rank>
1

> <Priority_score>
1.8199999999999998

> <Reaction_type>
aromatic hydroxylation

> <Parent_ID>
1

> <Parent_InChI>
InChI=1S/C16H16ClN3O3S/c1-10-8-11-4-2-3-5-14(11)20(10)19-16(21)12-6-7-13(17)15(9-12)24(18,22)23/h2-7,9-10H,8H2,1H3,(H,19,21)(H2,18,22,23)/t10-/m1/s1

> <Parent_SMILES>
C([H])([H])([H])[C@]1([H])C([H])([H])C2=C(C([H])=C([H])C([H])=C2[H])N1N([H])C(=O)C3=C([H])C([H])=C(C(=C3[H])S(=O)(=O)N([H])[H])Cl

$$$$

  CDK     1104240450

 25 27  0  0  0  0  0  0  0  0999 V2000
    4.1000   -0.0000    0.0000 C   0  0  0  0  0  0  0  0  0  0  0  0
    2.6000   -0.0000    0.0000 C   0  0  2  0  0  0  0  0  0  0  0  0
    1.7200    1.2100    0.0000 C   0  0  0  0  0  0  0  0  0  0  0  0
    0.2900    0.7500    0.0000 C   0  0  0  0  0  0  0  0  0  0  0  0
    0.2900   -0.7500    0.0000 C   0  0  0  0  0  0  0  0  0  0  0  0
   -1.0100   -1.5000    0.0000 C   0  0  0  0  0  0  0  0  0  0  0  0
   -2.3100   -0.7500    0.0000 C   0  0  0  0  0  0  0  0  0  0  0  0
   -2.3100    0.7500    0.0000 C   0  0  0  0  0  0  0  0  0  0  0  0
   -1.0100    1.5000    0.0000 C   0  0  0  0  0  0  0  0  0  0  0  0
    1.7200   -1.2100    0.0000 N   0  0  0  0  0  0  0  0  0  0  0  0
    1.1124   -2.5814    0.0000 N   0  0  0  0  0  0  0  0  0  0  0  0
    1.9962   -3.7934    0.0000 C   0  0  0  0  0  0  0  0  0  0  0  0
    3.4877   -3.6339    0.0000 O   0  0  0  0  0  0  0  0  0  0  0  0
    1.3886   -5.1648    0.0000 C   0  0  0  0  0  0  0  0  0  0  0  0
    2.2727   -6.3775    0.0000 C   0  0  0  0  0  0  0  0  0  0  0  0
    1.6654   -7.7500    0.0000 C   0  0  0  0  0  0  0  0  0  0  0  0
    0.1739   -7.9097    0.0000 C   0  0  0  0  0  0  0  0  0  0  0  0
   -0.7102   -6.6969    0.0000 C   0  0  0  0  0  0  0  0  0  0  0  0
   -0.1029   -5.3245    0.0000 C   0  0  0  0  0  0  0  0  0  0  0  0
   -2.2017   -6.8567    0.0000 S   0  0  0  0  0  0  0  0  0  0  0  0
   -2.1000   -5.3601    0.0000 O   0  0  0  0  0  0  0  0  0  0  0  0
   -3.6578   -6.4966    0.0000 O   0  0  0  0  0  0  0  0  0  0  0  0
   -2.8091   -8.2282    0.0000 N   0  0  0  0  0  0  0  0  0  0  0  0
   -0.4337   -9.2811    0.0000 Cl  0  0  0  0  0  0  0  0  0  0  0  0
    3.0195   -1.9591    0.0000 O   0  0  0  0  0  0  0  0  0  0  0  0
  2  1  1  1  0  0  0 
  2  3  1  0  0  0  0 
  3  4  1  0  0  0  0 
  4  5  2  0  0  0  0 
  5  6  1  0  0  0  0 
  6  7  2  0  0  0  0 
  7  8  1  0  0  0  0 
  8  9  2  0  0  0  0 
  4  9  1  0  0  0  0 
  5 10  1  0  0  0  0 
  2 10  1  0  0  0  0 
 10 11  1  0  0  0  0 
 11 12  1  0  0  0  0 
 12 13  2  0  0  0  0 
 12 14  1  0  0  0  0 
 14 15  2  0  0  0  0 
 15 16  1  0  0  0  0 
 16 17  2  0  0  0  0 
 17 18  1  0  0  0  0 
 18 19  2  0  0  0  0 
 14 19  1  0  0  0  0 
 18 20  1  0  0  0  0 
 20 21  2  0  0  0  0 
 20 22  2  0  0  0  0 
 20 23  1  0  0  0  0 
 17 24  1  0  0  0  0 
 10 25  1  0  0  0  0 
M  CHG  1  10   1
M  CHG  1  25  -1
M  END
> <Rank>
2

> <Priority_score>
1.3800000000000001

> <Reaction_type>
N-oxidation

> <Parent_ID>
1

> <Parent_InChI>
InChI=1S/C16H16ClN3O3S/c1-10-8-11-4-2-3-5-14(11)20(10)19-16(21)12-6-7-13(17)15(9-12)24(18,22)23/h2-7,9-10H,8H2,1H3,(H,19,21)(H2,18,22,23)/t10-/m1/s1

> <Parent_SMILES>
C([H])([H])([H])[C@]1([H])C([H])([H])C2=C(C([H])=C([H])C([H])=C2[H])N1N([H])C(=O)C3=C([H])C([H])=C(C(=C3[H])S(=O)(=O)N([H])[H])Cl

$$$$

  CDK     1104240450

 25 26  0  0  0  0  0  0  0  0999 V2000
    4.8756    0.8744    0.0000 C   0  0  0  0  0  0  0  0  0  0  0  0
    3.5679    0.1397    0.0000 C   0  0  0  0  0  0  0  0  0  0  0  0
    3.5504   -1.3602    0.0000 O   0  0  0  0  0  0  0  0  0  0  0  0
    2.2777    0.9048    0.0000 C   0  0  0  0  0  0  0  0  0  0  0  0
    0.9700    0.1700    0.0000 C   0  0  0  0  0  0  0  0  0  0  0  0
   -0.3000    0.9200    0.0000 C   0  0  0  0  0  0  0  0  0  0  0  0
   -1.6200    0.2100    0.0000 C   0  0  0  0  0  0  0  0  0  0  0  0
   -1.6100   -1.2900    0.0000 C   0  0  0  0  0  0  0  0  0  0  0  0
   -0.3400   -2.0400    0.0000 C   0  0  0  0  0  0  0  0  0  0  0  0
    0.9500   -1.3100    0.0000 C   0  0  0  0  0  0  0  0  0  0  0  0
   -0.2700    2.4197    0.0000 N   0  0  0  0  0  0  0  0  0  0  0  0
   -1.5538    3.1955    0.0000 N   0  0  0  0  0  0  0  0  0  0  0  0
   -1.5239    4.6952    0.0000 C   0  0  0  0  0  0  0  0  0  0  0  0
   -0.2101    5.4191    0.0000 O   0  0  0  0  0  0  0  0  0  0  0  0
   -2.8077    5.4710    0.0000 C   0  0  0  0  0  0  0  0  0  0  0  0
   -4.1223    4.7469    0.0000 C   0  0  0  0  0  0  0  0  0  0  0  0
   -5.4072    5.5225    0.0000 C   0  0  0  0  0  0  0  0  0  0  0  0
   -5.3774    7.0222    0.0000 C   0  0  0  0  0  0  0  0  0  0  0  0
   -4.0628    7.7463    0.0000 C   0  0  0  0  0  0  0  0  0  0  0  0
   -2.7779    6.9707    0.0000 C   0  0  0  0  0  0  0  0  0  0  0  0
   -4.0331    9.2460    0.0000 S   0  0  0  0  0  0  0  0  0  0  0  0
   -2.5613    8.9563    0.0000 O   0  0  0  0  0  0  0  0  0  0  0  0
   -3.4922   10.6451    0.0000 O   0  0  0  0  0  0  0  0  0  0  0  0
   -5.3170   10.0216    0.0000 N   0  0  0  0  0  0  0  0  0  0  0  0
   -6.6612    7.7980    0.0000 Cl  0  0  0  0  0  0  0  0  0  0  0  0
  1  2  1  0  0  0  0 
  2  3  2  0  0  0  0 
  2  4  1  0  0  0  0 
  4  5  1  0  0  0  0 
  5  6  2  0  0  0  0 
  6  7  1  0  0  0  0 
  7  8  2  0  0  0  0 
  8  9  1  0  0  0  0 
  9 10  2  0  0  0  0 
  5 10  1  0  0  0  0 
  6 11  1  0  0  0  0 
 11 12  1  0  0  0  0 
 12 13  1  0  0  0  0 
 13 14  2  0  0  0  0 
 13 15  1  0  0  0  0 
 15 16  2  0  0  0  0 
 16 17  1  0  0  0  0 
 17 18  2  0  0  0  0 
 18 19  1  0  0  0  0 
 19 20  2  0  0  0  0 
 15 20  1  0  0  0  0 
 19 21  1  0  0  0  0 
 21 22  2  0  0  0  0 
 21 23  2  0  0  0  0 
 21 24  1  0  0  0  0 
 18 25  1  0  0  0  0 
M  END
> <Rank>
2

> <Priority_score>
1.3800000000000001

> <Reaction_type>
N-dealkylation

> <Parent_ID>
1

> <Parent_InChI>
InChI=1S/C16H16ClN3O3S/c1-10-8-11-4-2-3-5-14(11)20(10)19-16(21)12-6-7-13(17)15(9-12)24(18,22)23/h2-7,9-10H,8H2,1H3,(H,19,21)(H2,18,22,23)/t10-/m1/s1

> <Parent_SMILES>
C([H])([H])([H])[C@]1([H])C([H])([H])C2=C(C([H])=C([H])C([H])=C2[H])N1N([H])C(=O)C3=C([H])C([H])=C(C(=C3[H])S(=O)(=O)N([H])[H])Cl

$$$$

  CDK     1104240450

 25 27  0  0  0  0  0  0  0  0999 V2000
    3.7146   -1.0039    0.0000 C   0  0  0  0  0  0  0  0  0  0  0  0
    2.6000   -0.0000    0.0000 C   0  0  0  0  0  0  0  0  0  0  0  0
    1.7200    1.2100    0.0000 C   0  0  0  0  0  0  0  0  0  0  0  0
    0.2900    0.7500    0.0000 C   0  0  0  0  0  0  0  0  0  0  0  0
    0.2900   -0.7500    0.0000 C   0  0  0  0  0  0  0  0  0  0  0  0
   -1.0100   -1.5000    0.0000 C   0  0  0  0  0  0  0  0  0  0  0  0
   -2.3100   -0.7500    0.0000 C   0  0  0  0  0  0  0  0  0  0  0  0
   -2.3100    0.7500    0.0000 C   0  0  0  0  0  0  0  0  0  0  0  0
   -1.0100    1.5000    0.0000 C   0  0  0  0  0  0  0  0  0  0  0  0
    1.7200   -1.2100    0.0000 N   0  0  0  0  0  0  0  0  0  0  0  0
    2.1853   -2.6360    0.0000 N   0  0  0  0  0  0  0  0  0  0  0  0
    3.6529   -2.9461    0.0000 C   0  0  0  0  0  0  0  0  0  0  0  0
    4.6552   -1.8301    0.0000 O   0  0  0  0  0  0  0  0  0  0  0  0
    4.1182   -4.3721    0.0000 C   0  0  0  0  0  0  0  0  0  0  0  0
    5.5865   -4.6826    0.0000 C   0  0  0  0  0  0  0  0  0  0  0  0
    6.0527   -6.1091    0.0000 C   0  0  0  0  0  0  0  0  0  0  0  0
    5.0506   -7.2253    0.0000 C   0  0  0  0  0  0  0  0  0  0  0  0
    3.5822   -6.9148    0.0000 C   0  0  0  0  0  0  0  0  0  0  0  0
    3.1160   -5.4882    0.0000 C   0  0  0  0  0  0  0  0  0  0  0  0
    2.5801   -8.0309    0.0000 S   0  0  0  0  0  0  0  0  0  0  0  0
    1.6550   -6.8502    0.0000 O   0  0  0  0  0  0  0  0  0  0  0  0
    1.2566   -8.7369    0.0000 O   0  0  0  0  0  0  0  0  0  0  0  0
    3.0456   -9.4568    0.0000 N   0  0  0  0  0  0  0  0  0  0  0  0
    5.5159   -8.6513    0.0000 Cl  0  0  0  0  0  0  0  0  0  0  0  0
    3.7146    1.0039    0.0000 O   0  0  0  0  0  0  0  0  0  0  0  0
  1  2  1  0  0  0  0 
  2  3  1  0  0  0  0 
  3  4  1  0  0  0  0 
  4  5  2  0  0  0  0 
  5  6  1  0  0  0  0 
  6  7  2  0  0  0  0 
  7  8  1  0  0  0  0 
  8  9  2  0  0  0  0 
  4  9  1  0  0  0  0 
  5 10  1  0  0  0  0 
  2 10  1  0  0  0  0 
 10 11  1  0  0  0  0 
 11 12  1  0  0  0  0 
 12 13  2  0  0  0  0 
 12 14  1  0  0  0  0 
 14 15  2  0  0  0  0 
 15 16  1  0  0  0  0 
 16 17  2  0  0  0  0 
 17 18  1  0  0  0  0 
 18 19  2  0  0  0  0 
 14 19  1  0  0  0  0 
 18 20  1  0  0  0  0 
 20 21  2  0  0  0  0 
 20 22  2  0  0  0  0 
 20 23  1  0  0  0  0 
 17 24  1  0  0  0  0 
  2 25  1  0  0  0  0 
M  END
> <Rank>
2

> <Priority_score>
1.3800000000000001

> <Reaction_type>
aliphatic hydroxylation

> <Parent_ID>
1

> <Parent_InChI>
InChI=1S/C16H16ClN3O3S/c1-10-8-11-4-2-3-5-14(11)20(10)19-16(21)12-6-7-13(17)15(9-12)24(18,22)23/h2-7,9-10H,8H2,1H3,(H,19,21)(H2,18,22,23)/t10-/m1/s1

> <Parent_SMILES>
C([H])([H])([H])[C@]1([H])C([H])([H])C2=C(C([H])=C([H])C([H])=C2[H])N1N([H])C(=O)C3=C([H])C([H])=C(C(=C3[H])S(=O)(=O)N([H])[H])Cl

$$$$

  CDK     1104240450

 25 27  0  0  0  0  0  0  0  0999 V2000
    4.1000   -0.0000    0.0000 C   0  0  0  0  0  0  0  0  0  0  0  0
    2.6000   -0.0000    0.0000 C   0  0  2  0  0  0  0  0  0  0  0  0
    1.7200    1.2100    0.0000 C   0  0  0  0  0  0  0  0  0  0  0  0
    0.2900    0.7500    0.0000 C   0  0  0  0  0  0  0  0  0  0  0  0
   -1.0100    1.5000    0.0000 C   0  0  0  0  0  0  0  0  0  0  0  0
   -2.3100    0.7500    0.0000 C   0  0  0  0  0  0  0  0  0  0  0  0
   -2.3100   -0.7500    0.0000 C   0  0  0  0  0  0  0  0  0  0  0  0
   -1.0100   -1.5000    0.0000 C   0  0  0  0  0  0  0  0  0  0  0  0
    0.2900   -0.7500    0.0000 C   0  0  0  0  0  0  0  0  0  0  0  0
    1.7200   -1.2100    0.0000 N   0  0  0  0  0  0  0  0  0  0  0  0
    2.1853   -2.6360    0.0000 N   0  0  0  0  0  0  0  0  0  0  0  0
    3.6529   -2.9461    0.0000 C   0  0  0  0  0  0  0  0  0  0  0  0
    4.6552   -1.8301    0.0000 O   0  0  0  0  0  0  0  0  0  0  0  0
    4.1182   -4.3721    0.0000 C   0  0  0  0  0  0  0  0  0  0  0  0
    5.5865   -4.6826    0.0000 C   0  0  0  0  0  0  0  0  0  0  0  0
    6.0527   -6.1091    0.0000 C   0  0  0  0  0  0  0  0  0  0  0  0
    5.0506   -7.2253    0.0000 C   0  0  0  0  0  0  0  0  0  0  0  0
    3.5822   -6.9148    0.0000 C   0  0  0  0  0  0  0  0  0  0  0  0
    3.1160   -5.4882    0.0000 C   0  0  0  0  0  0  0  0  0  0  0  0
    2.5801   -8.0309    0.0000 S   0  0  0  0  0  0  0  0  0  0  0  0
    1.6550   -6.8502    0.0000 O   0  0  0  0  0  0  0  0  0  0  0  0
    1.2566   -8.7369    0.0000 O   0  0  0  0  0  0  0  0  0  0  0  0
    3.0456   -9.4568    0.0000 N   0  0  0  0  0  0  0  0  0  0  0  0
    5.5159   -8.6513    0.0000 Cl  0  0  0  0  0  0  0  0  0  0  0  0
   -3.6089   -1.5002    0.0000 O   0  0  0  0  0  0  0  0  0  0  0  0
  2  1  1  1  0  0  0 
  2  3  1  0  0  0  0 
  3  4  1  0  0  0  0 
  4  5  2  0  0  0  0 
  5  6  1  0  0  0  0 
  6  7  2  0  0  0  0 
  7  8  1  0  0  0  0 
  8  9  2  0  0  0  0 
  4  9  1  0  0  0  0 
  9 10  1  0  0  0  0 
  2 10  1  0  0  0  0 
 10 11  1  0  0  0  0 
 11 12  1  0  0  0  0 
 12 13  2  0  0  0  0 
 12 14  1  0  0  0  0 
 14 15  2  0  0  0  0 
 15 16  1  0  0  0  0 
 16 17  2  0  0  0  0 
 17 18  1  0  0  0  0 
 18 19  2  0  0  0  0 
 14 19  1  0  0  0  0 
 18 20  1  0  0  0  0 
 20 21  2  0  0  0  0 
 20 22  2  0  0  0  0 
 20 23  1  0  0  0  0 
 17 24  1  0  0  0  0 
  7 25  1  0  0  0  0 
M  END
> <Rank>
5

> <Priority_score>
1.05

> <Reaction_type>
aromatic hydroxylation

> <Parent_ID>
1

> <Parent_InChI>
InChI=1S/C16H16ClN3O3S/c1-10-8-11-4-2-3-5-14(11)20(10)19-16(21)12-6-7-13(17)15(9-12)24(18,22)23/h2-7,9-10H,8H2,1H3,(H,19,21)(H2,18,22,23)/t10-/m1/s1

> <Parent_SMILES>
C([H])([H])([H])[C@]1([H])C([H])([H])C2=C(C([H])=C([H])C([H])=C2[H])N1N([H])C(=O)C3=C([H])C([H])=C(C(=C3[H])S(=O)(=O)N([H])[H])Cl

$$$$

  CDK     1104240450

 24 26  0  0  0  0  0  0  0  0999 V2000
    4.1000   -0.0000    0.0000 C   0  0  0  0  0  0  0  0  0  0  0  0
    2.6000   -0.0000    0.0000 C   0  0  0  0  0  0  0  0  0  0  0  0
    1.7200    1.2100    0.0000 C   0  0  0  0  0  0  0  0  0  0  0  0
    0.2900    0.7500    0.0000 C   0  0  0  0  0  0  0  0  0  0  0  0
    0.2900   -0.7500    0.0000 C   0  0  0  0  0  0  0  0  0  0  0  0
   -1.0100   -1.5000    0.0000 C   0  0  0  0  0  0  0  0  0  0  0  0
   -2.3100   -0.7500    0.0000 C   0  0  0  0  0  0  0  0  0  0  0  0
   -2.3100    0.7500    0.0000 C   0  0  0  0  0  0  0  0  0  0  0  0
   -1.0100    1.5000    0.0000 C   0  0  0  0  0  0  0  0  0  0  0  0
    1.7200   -1.2100    0.0000 N   0  0  0  0  0  0  0  0  0  0  0  0
    2.1853   -2.6360    0.0000 N   0  0  0  0  0  0  0  0  0  0  0  0
    3.6529   -2.9461    0.0000 C   0  0  0  0  0  0  0  0  0  0  0  0
    4.6552   -1.8301    0.0000 O   0  0  0  0  0  0  0  0  0  0  0  0
    4.1182   -4.3721    0.0000 C   0  0  0  0  0  0  0  0  0  0  0  0
    5.5865   -4.6826    0.0000 C   0  0  0  0  0  0  0  0  0  0  0  0
    6.0527   -6.1091    0.0000 C   0  0  0  0  0  0  0  0  0  0  0  0
    5.0506   -7.2253    0.0000 C   0  0  0  0  0  0  0  0  0  0  0  0
    3.5822   -6.9148    0.0000 C   0  0  0  0  0  0  0  0  0  0  0  0
    3.1160   -5.4882    0.0000 C   0  0  0  0  0  0  0  0  0  0  0  0
    2.5801   -8.0309    0.0000 S   0  0  0  0  0  0  0  0  0  0  0  0
    1.6550   -6.8502    0.0000 O   0  0  0  0  0  0  0  0  0  0  0  0
    1.2566   -8.7369    0.0000 O   0  0  0  0  0  0  0  0  0  0  0  0
    3.0456   -9.4568    0.0000 N   0  0  0  0  0  0  0  0  0  0  0  0
    5.5159   -8.6513    0.0000 Cl  0  0  0  0  0  0  0  0  0  0  0  0
  1  2  2  0  0  0  0 
  2  3  1  0  0  0  0 
  3  4  1  0  0  0  0 
  4  5  2  0  0  0  0 
  5  6  1  0  0  0  0 
  6  7  2  0  0  0  0 
  7  8  1  0  0  0  0 
  8  9  2  0  0  0  0 
  4  9  1  0  0  0  0 
  5 10  1  0  0  0  0 
  2 10  1  0  0  0  0 
 10 11  1  0  0  0  0 
 11 12  1  0  0  0  0 
 12 13  2  0  0  0  0 
 12 14  1  0  0  0  0 
 14 15  2  0  0  0  0 
 15 16  1  0  0  0  0 
 16 17  2  0  0  0  0 
 17 18  1  0  0  0  0 
 18 19  2  0  0  0  0 
 14 19  1  0  0  0  0 
 18 20  1  0  0  0  0 
 20 21  2  0  0  0  0 
 20 22  2  0  0  0  0 
 20 23  1  0  0  0  0 
 17 24  1  0  0  0  0 
M  END
> <Rank>
6

> <Priority_score>
0.276

> <Reaction_type>
alkyl dehydrogenation

> <Parent_ID>
1

> <Parent_InChI>
InChI=1S/C16H16ClN3O3S/c1-10-8-11-4-2-3-5-14(11)20(10)19-16(21)12-6-7-13(17)15(9-12)24(18,22)23/h2-7,9-10H,8H2,1H3,(H,19,21)(H2,18,22,23)/t10-/m1/s1

> <Parent_SMILES>
C([H])([H])([H])[C@]1([H])C([H])([H])C2=C(C([H])=C([H])C([H])=C2[H])N1N([H])C(=O)C3=C([H])C([H])=C(C(=C3[H])S(=O)(=O)N([H])[H])Cl

$$$$

  CDK     1104240450

 24 26  0  0  0  0  0  0  0  0999 V2000
    4.1000   -0.0000    0.0000 C   0  0  0  0  0  0  0  0  0  0  0  0
    2.6000   -0.0000    0.0000 C   0  0  0  0  0  0  0  0  0  0  0  0
    1.7200   -1.2100    0.0000 N   0  0  0  0  0  0  0  0  0  0  0  0
    0.2900   -0.7500    0.0000 C   0  0  0  0  0  0  0  0  0  0  0  0
    0.2900    0.7500    0.0000 C   0  0  0  0  0  0  0  0  0  0  0  0
   -1.0100    1.5000    0.0000 C   0  0  0  0  0  0  0  0  0  0  0  0
   -2.3100    0.7500    0.0000 C   0  0  0  0  0  0  0  0  0  0  0  0
   -2.3100   -0.7500    0.0000 C   0  0  0  0  0  0  0  0  0  0  0  0
   -1.0100   -1.5000    0.0000 C   0  0  0  0  0  0  0  0  0  0  0  0
    1.7200    1.2100    0.0000 C   0  0  0  0  0  0  0  0  0  0  0  0
    2.1853   -2.6360    0.0000 N   0  0  0  0  0  0  0  0  0  0  0  0
    3.6529   -2.9461    0.0000 C   0  0  0  0  0  0  0  0  0  0  0  0
    4.6552   -1.8301    0.0000 O   0  0  0  0  0  0  0  0  0  0  0  0
    4.1182   -4.3721    0.0000 C   0  0  0  0  0  0  0  0  0  0  0  0
    5.5865   -4.6826    0.0000 C   0  0  0  0  0  0  0  0  0  0  0  0
    6.0527   -6.1091    0.0000 C   0  0  0  0  0  0  0  0  0  0  0  0
    5.0506   -7.2253    0.0000 C   0  0  0  0  0  0  0  0  0  0  0  0
    3.5822   -6.9148    0.0000 C   0  0  0  0  0  0  0  0  0  0  0  0
    3.1160   -5.4882    0.0000 C   0  0  0  0  0  0  0  0  0  0  0  0
    2.5801   -8.0309    0.0000 S   0  0  0  0  0  0  0  0  0  0  0  0
    1.6550   -6.8502    0.0000 O   0  0  0  0  0  0  0  0  0  0  0  0
    1.2566   -8.7369    0.0000 O   0  0  0  0  0  0  0  0  0  0  0  0
    3.0456   -9.4568    0.0000 N   0  0  0  0  0  0  0  0  0  0  0  0
    5.5159   -8.6513    0.0000 Cl  0  0  0  0  0  0  0  0  0  0  0  0
  1  2  1  0  0  0  0 
  2  3  2  0  0  0  0 
  3  4  1  0  0  0  0 
  4  5  2  0  0  0  0 
  5  6  1  0  0  0  0 
  6  7  2  0  0  0  0 
  7  8  1  0  0  0  0 
  8  9  2  0  0  0  0 
  4  9  1  0  0  0  0 
  5 10  1  0  0  0  0 
  2 10  1  0  0  0  0 
  3 11  1  0  0  0  0 
 11 12  1  0  0  0  0 
 12 13  2  0  0  0  0 
 12 14  1  0  0  0  0 
 14 15  2  0  0  0  0 
 15 16  1  0  0  0  0 
 16 17  2  0  0  0  0 
 17 18  1  0  0  0  0 
 18 19  2  0  0  0  0 
 14 19  1  0  0  0  0 
 18 20  1  0  0  0  0 
 20 21  2  0  0  0  0 
 20 22  2  0  0  0  0 
 20 23  1  0  0  0  0 
 17 24  1  0  0  0  0 
M  CHG  1   3   1
M  END
> <Rank>
6

> <Priority_score>
0.276

> <Reaction_type>
dehydration of N-C bond

> <Parent_ID>
1

> <Parent_InChI>
InChI=1S/C16H16ClN3O3S/c1-10-8-11-4-2-3-5-14(11)20(10)19-16(21)12-6-7-13(17)15(9-12)24(18,22)23/h2-7,9-10H,8H2,1H3,(H,19,21)(H2,18,22,23)/t10-/m1/s1

> <Parent_SMILES>
C([H])([H])([H])[C@]1([H])C([H])([H])C2=C(C([H])=C([H])C([H])=C2[H])N1N([H])C(=O)C3=C([H])C([H])=C(C(=C3[H])S(=O)(=O)N([H])[H])Cl

$$$$

  CDK     1104240450

 24 26  0  0  0  0  0  0  0  0999 V2000
    4.1000   -0.0000    0.0000 C   0  0  0  0  0  0  0  0  0  0  0  0
    2.6000   -0.0000    0.0000 C   0  0  0  0  0  0  0  0  0  0  0  0
    1.7200    1.2100    0.0000 C   0  0  0  0  0  0  0  0  0  0  0  0
    0.2900    0.7500    0.0000 C   0  0  0  0  0  0  0  0  0  0  0  0
    0.2900   -0.7500    0.0000 C   0  0  0  0  0  0  0  0  0  0  0  0
   -1.0100   -1.5000    0.0000 C   0  0  0  0  0  0  0  0  0  0  0  0
   -2.3100   -0.7500    0.0000 C   0  0  0  0  0  0  0  0  0  0  0  0
   -2.3100    0.7500    0.0000 C   0  0  0  0  0  0  0  0  0  0  0  0
   -1.0100    1.5000    0.0000 C   0  0  0  0  0  0  0  0  0  0  0  0
    1.7200   -1.2100    0.0000 N   0  0  0  0  0  0  0  0  0  0  0  0
    2.1853   -2.6360    0.0000 N   0  0  0  0  0  0  0  0  0  0  0  0
    3.6529   -2.9461    0.0000 C   0  0  0  0  0  0  0  0  0  0  0  0
    4.6552   -1.8301    0.0000 O   0  0  0  0  0  0  0  0  0  0  0  0
    4.1182   -4.3721    0.0000 C   0  0  0  0  0  0  0  0  0  0  0  0
    5.5865   -4.6826    0.0000 C   0  0  0  0  0  0  0  0  0  0  0  0
    6.0527   -6.1091    0.0000 C   0  0  0  0  0  0  0  0  0  0  0  0
    5.0506   -7.2253    0.0000 C   0  0  0  0  0  0  0  0  0  0  0  0
    3.5822   -6.9148    0.0000 C   0  0  0  0  0  0  0  0  0  0  0  0
    3.1160   -5.4882    0.0000 C   0  0  0  0  0  0  0  0  0  0  0  0
    2.5801   -8.0309    0.0000 S   0  0  0  0  0  0  0  0  0  0  0  0
    1.6550   -6.8502    0.0000 O   0  0  0  0  0  0  0  0  0  0  0  0
    1.2566   -8.7369    0.0000 O   0  0  0  0  0  0  0  0  0  0  0  0
    3.0456   -9.4568    0.0000 N   0  0  0  0  0  0  0  0  0  0  0  0
    5.5159   -8.6513    0.0000 Cl  0  0  0  0  0  0  0  0  0  0  0  0
  1  2  1  0  0  0  0 
  2  3  2  0  0  0  0 
  3  4  1  0  0  0  0 
  4  5  2  0  0  0  0 
  5  6  1  0  0  0  0 
  6  7  2  0  0  0  0 
  7  8  1  0  0  0  0 
  8  9  2  0  0  0  0 
  4  9  1  0  0  0  0 
  5 10  1  0  0  0  0 
  2 10  1  0  0  0  0 
 10 11  1  0  0  0  0 
 11 12  1  0  0  0  0 
 12 13  2  0  0  0  0 
 12 14  1  0  0  0  0 
 14 15  2  0  0  0  0 
 15 16  1  0  0  0  0 
 16 17  2  0  0  0  0 
 17 18  1  0  0  0  0 
 18 19  2  0  0  0  0 
 14 19  1  0  0  0  0 
 18 20  1  0  0  0  0 
 20 21  2  0  0  0  0 
 20 22  2  0  0  0  0 
 20 23  1  0  0  0  0 
 17 24  1  0  0  0  0 
M  END
> <Rank>
6

> <Priority_score>
0.276

> <Reaction_type>
alkyl dehydrogenation

> <Parent_ID>
1

> <Parent_InChI>
InChI=1S/C16H16ClN3O3S/c1-10-8-11-4-2-3-5-14(11)20(10)19-16(21)12-6-7-13(17)15(9-12)24(18,22)23/h2-7,9-10H,8H2,1H3,(H,19,21)(H2,18,22,23)/t10-/m1/s1

> <Parent_SMILES>
C([H])([H])([H])[C@]1([H])C([H])([H])C2=C(C([H])=C([H])C([H])=C2[H])N1N([H])C(=O)C3=C([H])C([H])=C(C(=C3[H])S(=O)(=O)N([H])[H])Cl

$$$$
